<?xml version="1.0" encoding="UTF-8"?>

<!-- generated on 2026-05-01T01:05:04.145925+03:00 by Eclipse SUMO netedit 1.26.0
<neteditConfiguration xmlns:xsi="http://www.w3.org/2001/XMLSchema-instance" xsi:noNamespaceSchemaLocation="http://sumo.dlr.de/xsd/neteditConfiguration.xsd">

    <input>
        <sumo-net-file value="D:\Sumo_Samsun\normal_sure.net.xml"/>
    </input>

    <output>
        <output-file value="D:\Sumo_Samsun\normal_sure.net.xml"/>
    </output>

    <processing>
        <geometry.min-radius.fix.railways value="false"/>
        <geometry.avoid-overlap value="false"/>
        <geometry.max-grade.fix value="false"/>
        <offset.disable-normalization value="true"/>
        <lefthand value="0"/>
    </processing>

    <junctions>
        <no-turnarounds value="true"/>
        <junctions.corner-detail value="5"/>
        <junctions.limit-turn-speed value="5.50"/>
        <rectangular-lane-cut value="0"/>
    </junctions>

    <pedestrian>
        <walkingareas value="0"/>
    </pedestrian>

</neteditConfiguration>
-->

<net version="1.20" junctionCornerDetail="5" limitTurnSpeed="5.50" avoidOverlap="0" xmlns:xsi="http://www.w3.org/2001/XMLSchema-instance" xsi:noNamespaceSchemaLocation="http://sumo.dlr.de/xsd/net_file.xsd">

    <location netOffset="0.00,0.00" convBoundary="253100.48,4580431.48,271748.94,4600026.44" origBoundary="35.979090,41.343051,36.271937,41.535651" projParameter="+proj=utm +zone=37 +ellps=WGS84 +datum=WGS84 +units=m +no_defs"/>

    <type id="highway.secondary" priority="11" numLanes="1" speed="27.78" disallow="tram rail_urban rail rail_electric rail_fast ship container cable_car subway aircraft wheelchair scooter drone" oneway="0"/>
    <type id="highway.tertiary" priority="10" numLanes="1" speed="22.22" disallow="tram rail_urban rail rail_electric rail_fast ship container cable_car subway aircraft wheelchair scooter drone" oneway="0"/>
    <type id="highway.trunk" priority="13" numLanes="2" speed="27.78" disallow="pedestrian bicycle tram rail_urban rail rail_electric rail_fast ship container cable_car subway aircraft wheelchair scooter drone" oneway="0"/>
    <type id="highway.trunk_link" priority="8" numLanes="1" speed="22.22" disallow="pedestrian bicycle tram rail_urban rail rail_electric rail_fast ship container cable_car subway aircraft wheelchair scooter drone" oneway="0"/>

    <edge id=":-26303_0" function="internal">
        <lane id=":-26303_0_0" index="0" disallow="pedestrian bicycle tram rail_urban rail rail_electric rail_fast ship container cable_car subway aircraft wheelchair scooter drone" speed="22.78" length="0.10" shape="257944.93,4593734.60 257944.98,4593734.52"/>
        <lane id=":-26303_0_1" index="1" disallow="pedestrian bicycle tram rail_urban rail rail_electric rail_fast ship container cable_car subway aircraft wheelchair scooter drone" speed="22.78" length="0.10" shape="257942.29,4593732.80 257942.24,4593732.88"/>
    </edge>
    <edge id=":-26304_0" function="internal">
        <lane id=":-26304_0_0" index="0" disallow="pedestrian bicycle tram rail_urban rail rail_electric rail_fast ship container cable_car subway aircraft wheelchair scooter drone" speed="22.78" length="0.21" shape="257930.54,4593727.10 257930.71,4593726.84"/>
        <lane id=":-26304_0_1" index="1" disallow="pedestrian bicycle tram rail_urban rail rail_electric rail_fast ship container cable_car subway aircraft wheelchair scooter drone" speed="22.78" length="0.21" shape="257933.29,4593728.74 257933.35,4593728.65"/>
    </edge>
    <edge id=":-26366_0" function="internal">
        <lane id=":-26366_0_0" index="0" disallow="pedestrian bicycle tram rail_urban rail rail_electric rail_fast ship container cable_car subway aircraft wheelchair scooter drone" speed="22.78" length="0.23" shape="253396.99,4599868.02 253397.25,4599867.88"/>
        <lane id=":-26366_0_1" index="1" disallow="pedestrian bicycle tram rail_urban rail rail_electric rail_fast ship container cable_car subway aircraft wheelchair scooter drone" speed="22.78" length="0.23" shape="253398.59,4599870.79 253398.74,4599870.71"/>
    </edge>
    <edge id=":-26367_0" function="internal">
        <lane id=":-26367_0_0" index="0" disallow="pedestrian bicycle tram rail_urban rail rail_electric rail_fast ship container cable_car subway aircraft wheelchair scooter drone" speed="22.78" length="0.30" shape="253413.76,4599878.27 253413.50,4599878.40"/>
        <lane id=":-26367_0_1" index="1" disallow="pedestrian bicycle tram rail_urban rail rail_electric rail_fast ship container cable_car subway aircraft wheelchair scooter drone" speed="22.78" length="0.30" shape="253412.31,4599875.42 253412.03,4599875.56"/>
    </edge>
    <edge id=":-26448_0" function="internal">
        <lane id=":-26448_0_0" index="0" disallow="pedestrian bicycle tram rail_urban rail rail_electric rail_fast ship container cable_car subway aircraft wheelchair scooter drone" speed="22.78" length="0.26" shape="255318.98,4597158.41 255319.11,4597158.24"/>
        <lane id=":-26448_0_1" index="1" disallow="pedestrian bicycle tram rail_urban rail rail_electric rail_fast ship container cable_car subway aircraft wheelchair scooter drone" speed="22.78" length="0.26" shape="255321.52,4597160.36 255321.71,4597160.11"/>
    </edge>
    <edge id=":-26449_0" function="internal">
        <lane id=":-26449_0_0" index="0" disallow="pedestrian bicycle tram rail_urban rail rail_electric rail_fast ship container cable_car subway aircraft wheelchair scooter drone" speed="22.78" length="0.10" shape="255331.92,4597172.81 255331.86,4597172.89"/>
        <lane id=":-26449_0_1" index="1" disallow="pedestrian bicycle tram rail_urban rail rail_electric rail_fast ship container cable_car subway aircraft wheelchair scooter drone" speed="22.78" length="0.10" shape="255329.32,4597170.95 255329.38,4597170.87"/>
    </edge>
    <edge id=":-26479_0" function="internal">
        <lane id=":-26479_0_0" index="0" disallow="pedestrian bicycle tram rail_urban rail rail_electric rail_fast ship container cable_car subway aircraft wheelchair scooter drone" speed="22.78" length="0.24" shape="255350.04,4597147.61 255349.93,4597147.76"/>
        <lane id=":-26479_0_1" index="1" disallow="pedestrian bicycle tram rail_urban rail rail_electric rail_fast ship container cable_car subway aircraft wheelchair scooter drone" speed="22.78" length="0.24" shape="255347.51,4597145.66 255347.33,4597145.89"/>
    </edge>
    <edge id=":-26480_0" function="internal">
        <lane id=":-26480_0_0" index="0" disallow="pedestrian bicycle tram rail_urban rail rail_electric rail_fast ship container cable_car subway aircraft wheelchair scooter drone" speed="22.78" length="0.24" shape="255336.95,4597133.48 255337.06,4597133.33"/>
        <lane id=":-26480_0_1" index="1" disallow="pedestrian bicycle tram rail_urban rail rail_electric rail_fast ship container cable_car subway aircraft wheelchair scooter drone" speed="22.78" length="0.24" shape="255339.55,4597135.35 255339.72,4597135.11"/>
    </edge>
    <edge id=":-26486_0" function="internal">
        <lane id=":-26486_0_0" index="0" disallow="pedestrian bicycle tram rail_urban rail rail_electric rail_fast ship container cable_car subway aircraft wheelchair scooter drone" speed="6.61" length="7.87" shape="255631.95,4596553.42 255630.35,4596551.91 255629.47,4596550.27 255629.30,4596548.48 255629.84,4596546.55"/>
    </edge>
    <edge id=":-26486_1" function="internal">
        <lane id=":-26486_1_0" index="0" disallow="pedestrian bicycle tram rail_urban rail rail_electric rail_fast ship container cable_car subway aircraft wheelchair scooter drone" speed="22.78" length="8.72" shape="255623.39,4596553.22 255626.93,4596545.23"/>
        <lane id=":-26486_1_1" index="1" disallow="pedestrian bicycle tram rail_urban rail rail_electric rail_fast ship container cable_car subway aircraft wheelchair scooter drone" speed="22.78" length="8.72" shape="255626.32,4596554.51 255629.84,4596546.55"/>
    </edge>
    <edge id=":-26487_0" function="internal">
        <lane id=":-26487_0_0" index="0" disallow="pedestrian bicycle tram rail_urban rail rail_electric rail_fast ship container cable_car subway aircraft wheelchair scooter drone" speed="22.78" length="8.79" shape="255631.82,4596534.38 255635.73,4596526.42"/>
        <lane id=":-26487_0_1" index="1" disallow="pedestrian bicycle tram rail_urban rail rail_electric rail_fast ship container cable_car subway aircraft wheelchair scooter drone" speed="22.78" length="8.79" shape="255634.74,4596535.69 255638.58,4596527.87"/>
    </edge>
    <edge id=":-26487_2" function="internal">
        <lane id=":-26487_2_0" index="0" disallow="pedestrian bicycle tram rail_urban rail rail_electric rail_fast ship container cable_car subway aircraft wheelchair scooter drone" speed="6.83" length="7.91" shape="255634.74,4596535.69 255635.79,4596534.10 255637.25,4596533.06 255639.12,4596532.58 255641.40,4596532.66"/>
    </edge>
    <edge id=":-26491_0" function="internal">
        <lane id=":-26491_0_0" index="0" disallow="pedestrian bicycle tram rail_urban rail rail_electric rail_fast ship container cable_car subway aircraft wheelchair scooter drone" speed="12.36" length="24.28" shape="255824.05,4596145.58 255822.89,4596141.54 255823.63,4596136.49 255826.27,4596130.44 255830.79,4596123.39"/>
    </edge>
    <edge id=":-26491_1" function="internal">
        <lane id=":-26491_1_0" index="0" disallow="pedestrian bicycle tram rail_urban rail rail_electric rail_fast ship container cable_car subway aircraft wheelchair scooter drone" speed="9.92" length="24.80" shape="255824.05,4596145.58 255822.03,4596139.97 255822.98,4596134.97 255826.90,4596130.58 255833.79,4596126.80"/>
    </edge>
    <edge id=":-26491_2" function="internal">
        <lane id=":-26491_2_0" index="0" disallow="pedestrian bicycle tram rail_urban rail rail_electric rail_fast ship container cable_car subway aircraft wheelchair scooter drone" speed="22.78" length="26.02" shape="255815.94,4596144.34 255818.44,4596137.94 255821.12,4596132.43 255824.28,4596127.17 255828.20,4596121.52"/>
    </edge>
    <edge id=":-26491_3" function="internal">
        <lane id=":-26491_3_0" index="0" disallow="pedestrian bicycle tram rail_urban rail rail_electric rail_fast ship container cable_car subway aircraft wheelchair scooter drone" speed="15.45" length="3.62" shape="255818.95,4596145.41 255820.39,4596142.09"/>
    </edge>
    <edge id=":-26491_4" function="internal">
        <lane id=":-26491_4_0" index="0" disallow="pedestrian bicycle tram rail_urban rail rail_electric rail_fast ship container cable_car subway aircraft wheelchair scooter drone" speed="15.45" length="20.85" shape="255820.39,4596142.09 255821.83,4596138.77 255825.26,4596133.45 255829.25,4596129.46 255833.79,4596126.80"/>
    </edge>
    <edge id=":-26511_0" function="internal">
        <lane id=":-26511_0_0" index="0" disallow="pedestrian bicycle tram rail_urban rail rail_electric rail_fast ship container cable_car subway aircraft wheelchair scooter drone" speed="22.78" length="21.68" shape="256895.77,4595413.03 256899.74,4595408.22 256902.88,4595404.69 256906.24,4595401.37 256910.84,4595397.16"/>
        <lane id=":-26511_0_1" index="1" disallow="pedestrian bicycle tram rail_urban rail rail_electric rail_fast ship container cable_car subway aircraft wheelchair scooter drone" speed="22.78" length="21.68" shape="256898.25,4595415.05 256902.17,4595410.29 256905.19,4595406.89 256908.43,4595403.69 256912.98,4595399.53"/>
    </edge>
    <edge id=":-26511_2" function="internal">
        <lane id=":-26511_2_0" index="0" disallow="pedestrian bicycle tram rail_urban rail rail_electric rail_fast ship container cable_car subway aircraft wheelchair scooter drone" speed="22.78" length="20.19" shape="256898.25,4595415.05 256902.82,4595410.28 256907.07,4595407.20 256910.99,4595405.15 256914.55,4595403.52"/>
    </edge>
    <edge id=":-26511_3" function="internal">
        <lane id=":-26511_3_0" index="0" disallow="pedestrian bicycle tram rail_urban rail rail_electric rail_fast ship container cable_car subway aircraft wheelchair scooter drone" speed="12.75" length="20.58" shape="256903.33,4595416.89 256903.53,4595412.93 256905.20,4595408.71 256908.35,4595404.25 256912.98,4595399.53"/>
    </edge>
    <edge id=":-26511_4" function="internal">
        <lane id=":-26511_4_0" index="0" disallow="pedestrian bicycle tram rail_urban rail rail_electric rail_fast ship container cable_car subway aircraft wheelchair scooter drone" speed="10.33" length="18.60" shape="256903.33,4595416.89 256903.64,4595413.27 256905.61,4595409.83 256909.25,4595406.58 256914.55,4595403.52"/>
    </edge>
    <edge id=":-26550_0" function="internal">
        <lane id=":-26550_0_0" index="0" disallow="pedestrian bicycle tram rail_urban rail rail_electric rail_fast ship container cable_car subway aircraft wheelchair scooter drone" speed="22.78" length="24.31" shape="256936.19,4595416.47 256932.44,4595422.03 256928.85,4595426.51 256924.79,4595430.54 256919.60,4595434.77"/>
        <lane id=":-26550_0_1" index="1" disallow="pedestrian bicycle tram rail_urban rail rail_electric rail_fast ship container cable_car subway aircraft wheelchair scooter drone" speed="22.78" length="24.31" shape="256933.49,4595414.74 256929.86,4595420.17 256926.54,4595424.37 256922.73,4595428.12 256917.66,4595432.23"/>
    </edge>
    <edge id=":-26550_2" function="internal">
        <lane id=":-26550_2_0" index="0" disallow="pedestrian bicycle tram rail_urban rail rail_electric rail_fast ship container cable_car subway aircraft wheelchair scooter drone" speed="12.49" length="22.72" shape="256933.49,4595414.74 256929.17,4595420.55 256924.78,4595424.59 256920.34,4595426.86 256915.84,4595427.35"/>
    </edge>
    <edge id=":-26550_3" function="internal">
        <lane id=":-26550_3_0" index="0" disallow="pedestrian bicycle tram rail_urban rail rail_electric rail_fast ship container cable_car subway aircraft wheelchair scooter drone" speed="14.02" length="22.76" shape="256928.81,4595413.27 256928.08,4595418.41 256925.98,4595423.28 256922.51,4595427.89 256917.66,4595432.23"/>
    </edge>
    <edge id=":-26550_4" function="internal">
        <lane id=":-26550_4_0" index="0" disallow="pedestrian bicycle tram rail_urban rail rail_electric rail_fast ship container cable_car subway aircraft wheelchair scooter drone" speed="9.61" length="22.19" shape="256928.81,4595413.27 256927.95,4595419.85 256925.51,4595424.39 256921.47,4595426.89 256915.84,4595427.35"/>
    </edge>
    <edge id=":-26570_0" function="internal">
        <lane id=":-26570_0_0" index="0" disallow="pedestrian bicycle tram rail_urban rail rail_electric rail_fast ship container cable_car subway aircraft wheelchair scooter drone" speed="22.78" length="24.22" shape="255859.71,4596136.35 255848.16,4596157.63"/>
    </edge>
    <edge id=":-26570_1" function="internal">
        <lane id=":-26570_1_0" index="0" disallow="pedestrian bicycle tram rail_urban rail rail_electric rail_fast ship container cable_car subway aircraft wheelchair scooter drone" speed="17.82" length="4.19" shape="255856.88,4596134.87 255854.80,4596138.50"/>
    </edge>
    <edge id=":-26570_4" function="internal">
        <lane id=":-26570_4_0" index="0" disallow="pedestrian bicycle tram rail_urban rail rail_electric rail_fast ship container cable_car subway aircraft wheelchair scooter drone" speed="17.82" length="19.17" shape="255854.80,4596138.50 255853.30,4596141.13 255849.61,4596146.40 255845.93,4596150.39 255842.38,4596152.80"/>
    </edge>
    <edge id=":-26570_2" function="internal">
        <lane id=":-26570_2_0" index="0" disallow="pedestrian bicycle tram rail_urban rail rail_electric rail_fast ship container cable_car subway aircraft wheelchair scooter drone" speed="22.78" length="23.75" shape="255852.87,4596133.70 255852.38,4596138.08 255850.98,4596143.49 255848.65,4596149.59 255845.39,4596156.04"/>
    </edge>
    <edge id=":-26570_3" function="internal">
        <lane id=":-26570_3_0" index="0" disallow="pedestrian bicycle tram rail_urban rail rail_electric rail_fast ship container cable_car subway aircraft wheelchair scooter drone" speed="12.17" length="23.10" shape="255852.87,4596133.70 255852.17,4596140.33 255850.19,4596145.72 255846.93,4596149.88 255842.38,4596152.80"/>
    </edge>
    <edge id=":-26574_0" function="internal">
        <lane id=":-26574_0_0" index="0" disallow="pedestrian bicycle tram rail_urban rail rail_electric rail_fast ship container cable_car subway aircraft wheelchair scooter drone" speed="22.78" length="8.42" shape="255659.18,4596536.92 255655.84,4596544.70"/>
        <lane id=":-26574_0_1" index="1" disallow="pedestrian bicycle tram rail_urban rail rail_electric rail_fast ship container cable_car subway aircraft wheelchair scooter drone" speed="22.78" length="8.42" shape="255656.23,4596535.68 255652.92,4596543.38"/>
    </edge>
    <edge id=":-26574_2" function="internal">
        <lane id=":-26574_2_0" index="0" disallow="pedestrian bicycle tram rail_urban rail rail_electric rail_fast ship container cable_car subway aircraft wheelchair scooter drone" speed="6.55" length="7.74" shape="255650.82,4596536.64 255652.40,4596538.11 255653.28,4596539.73 255653.45,4596541.49 255652.92,4596543.38"/>
    </edge>
    <edge id=":-26575_0" function="internal">
        <lane id=":-26575_0_0" index="0" disallow="pedestrian bicycle tram rail_urban rail rail_electric rail_fast ship container cable_car subway aircraft wheelchair scooter drone" speed="22.78" length="9.56" shape="255651.21,4596554.98 255649.64,4596557.19 255647.88,4596558.20 255646.06,4596559.19 255644.32,4596561.32"/>
    </edge>
    <edge id=":-26575_1" function="internal">
        <lane id=":-26575_1_0" index="0" disallow="pedestrian bicycle tram rail_urban rail rail_electric rail_fast ship container cable_car subway aircraft wheelchair scooter drone" speed="7.31" length="8.12" shape="255648.29,4596553.66 255647.26,4596555.25 255645.78,4596556.36 255643.87,4596557.00 255641.52,4596557.17"/>
    </edge>
    <edge id=":-26596_0" function="internal">
        <lane id=":-26596_0_0" index="0" disallow="pedestrian bicycle tram rail_urban rail rail_electric rail_fast ship container cable_car subway aircraft wheelchair scooter drone" speed="4.27" length="1.20" shape="255839.80,4596124.31 255840.13,4596124.18 255840.37,4596124.14 255840.62,4596124.17 255840.95,4596124.28"/>
    </edge>
    <edge id=":-26613_0" function="internal">
        <lane id=":-26613_0_0" index="0" disallow="pedestrian bicycle tram rail_urban rail rail_electric rail_fast ship container cable_car subway aircraft wheelchair scooter drone" speed="4.33" length="1.13" shape="256924.98,4595404.51 256925.29,4595404.63 256925.49,4595404.75 256925.65,4595404.92 256925.83,4595405.20"/>
    </edge>
    <edge id=":-26629_0" function="internal">
        <lane id=":-26629_0_0" index="0" disallow="pedestrian bicycle tram rail_urban rail rail_electric rail_fast ship container cable_car subway aircraft wheelchair scooter drone" speed="22.78" length="0.26" shape="257948.76,4593700.49 257948.95,4593700.22"/>
        <lane id=":-26629_0_1" index="1" disallow="pedestrian bicycle tram rail_urban rail rail_electric rail_fast ship container cable_car subway aircraft wheelchair scooter drone" speed="22.78" length="0.26" shape="257951.40,4593702.30 257951.51,4593702.15"/>
    </edge>
    <edge id=":-26630_0" function="internal">
        <lane id=":-26630_0_0" index="0" disallow="pedestrian bicycle tram rail_urban rail rail_electric rail_fast ship container cable_car subway aircraft wheelchair scooter drone" speed="22.78" length="0.24" shape="257963.46,4593707.43 257963.36,4593707.58"/>
        <lane id=":-26630_0_1" index="1" disallow="pedestrian bicycle tram rail_urban rail rail_electric rail_fast ship container cable_car subway aircraft wheelchair scooter drone" speed="22.78" length="0.24" shape="257960.88,4593705.54 257960.71,4593705.78"/>
    </edge>
    <edge id=":-26638_0" function="internal">
        <lane id=":-26638_0_0" index="0" disallow="pedestrian bicycle tram rail_urban rail rail_electric rail_fast ship container cable_car subway aircraft wheelchair scooter drone" speed="22.78" length="0.10" shape="258276.47,4593330.54 258276.47,4593330.55"/>
        <lane id=":-26638_0_1" index="1" disallow="pedestrian bicycle tram rail_urban rail rail_electric rail_fast ship container cable_car subway aircraft wheelchair scooter drone" speed="22.78" length="0.10" shape="258278.69,4593332.85 258278.69,4593332.85"/>
        <lane id=":-26638_0_2" index="2" disallow="pedestrian bicycle tram rail_urban rail rail_electric rail_fast ship container cable_car subway aircraft wheelchair scooter drone" speed="22.78" length="0.10" shape="258280.91,4593335.16 258280.91,4593335.15"/>
    </edge>
    <edge id=":-26639_0" function="internal">
        <lane id=":-26639_0_0" index="0" disallow="pedestrian bicycle tram rail_urban rail rail_electric rail_fast ship container cable_car subway aircraft wheelchair scooter drone" speed="22.78" length="0.30" shape="258292.80,4593341.10 258292.58,4593341.31"/>
        <lane id=":-26639_0_1" index="1" disallow="pedestrian bicycle tram rail_urban rail rail_electric rail_fast ship container cable_car subway aircraft wheelchair scooter drone" speed="22.78" length="0.30" shape="258290.57,4593338.81 258290.35,4593339.01"/>
        <lane id=":-26639_0_2" index="2" disallow="pedestrian bicycle tram rail_urban rail rail_electric rail_fast ship container cable_car subway aircraft wheelchair scooter drone" speed="22.78" length="0.30" shape="258288.34,4593336.51 258288.12,4593336.72"/>
    </edge>
    <edge id=":-26647_0" function="internal">
        <lane id=":-26647_0_0" index="0" disallow="pedestrian bicycle tram rail_urban rail rail_electric rail_fast ship container cable_car subway aircraft wheelchair scooter drone" speed="12.43" length="9.73" shape="258532.15,4593128.03 258529.43,4593128.51 258527.76,4593129.51 258526.28,4593131.01 258524.15,4593132.99"/>
        <lane id=":-26647_0_1" index="1" disallow="pedestrian bicycle tram rail_urban rail rail_electric rail_fast ship container cable_car subway aircraft wheelchair scooter drone" speed="12.98" length="10.63" shape="258532.15,4593128.03 258528.98,4593128.09 258526.72,4593128.17 258524.67,4593128.79 258522.14,4593130.50"/>
        <lane id=":-26647_0_2" index="2" disallow="pedestrian bicycle tram rail_urban rail rail_electric rail_fast ship container cable_car subway aircraft wheelchair scooter drone" speed="14.11" length="12.62" shape="258531.96,4593124.83 258528.20,4593124.95 258525.54,4593125.12 258523.13,4593125.95 258520.13,4593128.01"/>
    </edge>
    <edge id=":-26647_3" function="internal">
        <lane id=":-26647_3_0" index="0" disallow="pedestrian bicycle tram rail_urban rail rail_electric rail_fast ship container cable_car subway aircraft wheelchair scooter drone" speed="14.89" length="12.50" shape="258531.96,4593124.83 258528.10,4593125.23 258525.35,4593125.48 258522.77,4593125.06 258519.39,4593123.45"/>
        <lane id=":-26647_3_1" index="1" disallow="pedestrian bicycle tram rail_urban rail rail_electric rail_fast ship container cable_car subway aircraft wheelchair scooter drone" speed="14.32" length="12.50" shape="258531.76,4593121.64 258528.20,4593121.98 258525.67,4593122.16 258523.29,4593121.72 258520.18,4593120.20"/>
    </edge>
    <edge id=":-26656_0" function="internal">
        <lane id=":-26656_0_0" index="0" disallow="pedestrian bicycle tram rail_urban rail rail_electric rail_fast ship container cable_car subway aircraft wheelchair scooter drone" speed="14.40" length="12.47" shape="258510.24,4593113.55 258508.90,4593110.04 258508.67,4593107.43 258509.14,4593104.72 258509.93,4593100.92"/>
        <lane id=":-26656_0_1" index="1" disallow="pedestrian bicycle tram rail_urban rail rail_electric rail_fast ship container cable_car subway aircraft wheelchair scooter drone" speed="13.81" length="12.47" shape="258513.54,4593113.04 258512.28,4593109.83 258512.01,4593107.43 258512.39,4593104.95 258513.08,4593101.46"/>
    </edge>
    <edge id=":-26656_2" function="internal">
        <lane id=":-26656_2_0" index="0" disallow="pedestrian bicycle tram rail_urban rail rail_electric rail_fast ship container cable_car subway aircraft wheelchair scooter drone" speed="13.24" length="11.72" shape="258501.07,4593108.09 258503.23,4593106.07 258504.84,4593104.69 258506.00,4593103.08 258506.77,4593100.38"/>
        <lane id=":-26656_2_1" index="1" disallow="pedestrian bicycle tram rail_urban rail rail_electric rail_fast ship container cable_car subway aircraft wheelchair scooter drone" speed="14.39" length="11.72" shape="258503.41,4593110.27 258505.93,4593107.84 258507.76,4593106.14 258509.05,4593104.16 258509.93,4593100.92"/>
        <lane id=":-26656_2_2" index="2" disallow="pedestrian bicycle tram rail_urban rail rail_electric rail_fast ship container cable_car subway aircraft wheelchair scooter drone" speed="15.47" length="11.72" shape="258505.75,4593112.45 258508.64,4593109.61 258510.68,4593107.59 258512.10,4593105.25 258513.08,4593101.46"/>
    </edge>
    <edge id=":-26660_0" function="internal">
        <lane id=":-26660_0_0" index="0" disallow="pedestrian bicycle tram rail_urban rail rail_electric rail_fast ship container cable_car subway aircraft wheelchair scooter drone" speed="14.64" length="10.21" shape="258527.50,4593080.10 258530.32,4593079.29 258532.01,4593078.13 258533.49,4593076.53 258535.67,4593074.39"/>
        <lane id=":-26660_0_1" index="1" disallow="pedestrian bicycle tram rail_urban rail rail_electric rail_fast ship container cable_car subway aircraft wheelchair scooter drone" speed="15.20" length="11.01" shape="258527.50,4593080.10 258530.76,4593079.68 258533.08,4593079.41 258535.17,4593078.68 258537.75,4593076.82"/>
        <lane id=":-26660_0_2" index="2" disallow="pedestrian bicycle tram rail_urban rail rail_electric rail_fast ship container cable_car subway aircraft wheelchair scooter drone" speed="16.30" length="12.70" shape="258528.07,4593083.25 258531.83,4593082.73 258534.48,4593082.35 258536.87,4593081.43 258539.83,4593079.25"/>
    </edge>
    <edge id=":-26660_3" function="internal">
        <lane id=":-26660_3_0" index="0" disallow="pedestrian bicycle tram rail_urban rail rail_electric rail_fast ship container cable_car subway aircraft wheelchair scooter drone" speed="13.62" length="12.49" shape="258528.64,4593086.40 258532.34,4593085.12 258534.93,4593083.61 258537.42,4593082.84 258540.78,4593083.79"/>
        <lane id=":-26660_3_1" index="1" disallow="pedestrian bicycle tram rail_urban rail rail_electric rail_fast ship container cable_car subway aircraft wheelchair scooter drone" speed="13.08" length="12.49" shape="258528.64,4593086.40 258532.13,4593085.70 258534.63,4593085.36 258537.03,4593085.72 258540.21,4593087.09"/>
    </edge>
    <edge id=":-26665_0" function="internal">
        <lane id=":-26665_0_0" index="0" disallow="pedestrian bicycle tram rail_urban rail rail_electric rail_fast ship container cable_car subway aircraft wheelchair scooter drone" speed="12.60" length="11.89" shape="258560.34,4593099.77 258558.16,4593101.80 258556.52,4593103.19 258555.38,4593104.82 258554.69,4593107.55"/>
        <lane id=":-26665_0_1" index="1" disallow="pedestrian bicycle tram rail_urban rail rail_electric rail_fast ship container cable_car subway aircraft wheelchair scooter drone" speed="13.75" length="11.89" shape="258557.99,4593097.59 258555.43,4593100.06 258553.57,4593101.80 258552.30,4593103.82 258551.52,4593107.12"/>
        <lane id=":-26665_0_2" index="2" disallow="pedestrian bicycle tram rail_urban rail rail_electric rail_fast ship container cable_car subway aircraft wheelchair scooter drone" speed="14.82" length="11.89" shape="258555.65,4593095.41 258552.70,4593098.31 258550.62,4593100.40 258549.22,4593102.81 258548.35,4593106.69"/>
    </edge>
    <edge id=":-26665_3" function="internal">
        <lane id=":-26665_3_0" index="0" disallow="pedestrian bicycle tram rail_urban rail rail_electric rail_fast ship container cable_car subway aircraft wheelchair scooter drone" speed="14.80" length="12.68" shape="258551.12,4593094.34 258552.51,4593097.85 258552.72,4593100.50 258552.22,4593103.25 258551.52,4593107.12"/>
        <lane id=":-26665_3_1" index="1" disallow="pedestrian bicycle tram rail_urban rail rail_electric rail_fast ship container cable_car subway aircraft wheelchair scooter drone" speed="14.25" length="12.68" shape="258547.80,4593094.86 258549.12,4593098.11 258549.37,4593100.56 258548.97,4593103.11 258548.35,4593106.69"/>
    </edge>
    <edge id=":-26684_0" function="internal">
        <lane id=":-26684_0_0" index="0" disallow="pedestrian bicycle tram rail_urban rail rail_electric rail_fast ship container cable_car subway aircraft wheelchair scooter drone" speed="22.78" length="0.30" shape="258882.11,4592753.88 258882.33,4592753.67"/>
        <lane id=":-26684_0_1" index="1" disallow="pedestrian bicycle tram rail_urban rail rail_electric rail_fast ship container cable_car subway aircraft wheelchair scooter drone" speed="22.78" length="0.30" shape="258884.31,4592756.20 258884.53,4592756.00"/>
        <lane id=":-26684_0_2" index="2" disallow="pedestrian bicycle tram rail_urban rail rail_electric rail_fast ship container cable_car subway aircraft wheelchair scooter drone" speed="22.78" length="0.30" shape="258886.51,4592758.53 258886.72,4592758.33"/>
    </edge>
    <edge id=":-26685_0" function="internal">
        <lane id=":-26685_0_0" index="0" disallow="pedestrian bicycle tram rail_urban rail rail_electric rail_fast ship container cable_car subway aircraft wheelchair scooter drone" speed="22.78" length="0.30" shape="258901.21,4592769.67 258901.01,4592769.86"/>