<?xml version="1.0" encoding="UTF-8"?>

<!-- generated on 2026-05-12T20:33:34.841766+03:00 by Eclipse SUMO netedit 1.26.0
<neteditConfiguration xmlns:xsi="http://www.w3.org/2001/XMLSchema-instance" xsi:noNamespaceSchemaLocation="http://sumo.dlr.de/xsd/neteditConfiguration.xsd">

    <input>
        <sumocfg-file value="D:\Sumo_Samsun\yeni_normal_sure.sumocfg"/>
        <additional-files value="D:\Sumo_Samsun\Detectors/detector_deneme.add.xml"/>
        <route-files value="D:\Sumo_Samsun\arac_talepleri/deneme_1.rou.xml"/>
        <sumo-net-file value="D:\Sumo_Samsun\yeni_normal_sure.net.xml"/>
    </input>

    <output>
        <output-file value="D:\Sumo_Samsun\yeni_normal_sure.net.xml"/>
    </output>

    <processing>
        <geometry.min-radius.fix.railways value="false"/>
        <geometry.avoid-overlap value="false"/>
        <geometry.max-grade.fix value="false"/>
        <offset.disable-normalization value="true"/>
        <lefthand value="0"/>
    </processing>

    <junctions>
        <no-turnarounds value="true"/>
        <junctions.corner-detail value="5"/>
        <junctions.limit-turn-speed value="5.50"/>
        <rectangular-lane-cut value="0"/>
    </junctions>

    <pedestrian>
        <walkingareas value="0"/>
    </pedestrian>

</neteditConfiguration>
-->

<net version="1.20" junctionCornerDetail="5" limitTurnSpeed="5.50" avoidOverlap="0" xmlns:xsi="http://www.w3.org/2001/XMLSchema-instance" xsi:noNamespaceSchemaLocation="http://sumo.dlr.de/xsd/net_file.xsd">

    <location netOffset="0.00,0.00" convBoundary="253147.39,4580242.84,272124.25,4600013.84" origBoundary="35.979090,41.343051,36.271937,41.535651" projParameter="+proj=utm +zone=37 +ellps=WGS84 +datum=WGS84 +units=m +no_defs"/>

    <type id="highway.secondary" priority="11" numLanes="1" speed="27.78" disallow="tram rail_urban rail rail_electric rail_fast ship container cable_car subway aircraft wheelchair scooter drone" oneway="0"/>
    <type id="highway.tertiary" priority="10" numLanes="1" speed="22.22" disallow="tram rail_urban rail rail_electric rail_fast ship container cable_car subway aircraft wheelchair scooter drone" oneway="0"/>
    <type id="highway.trunk" priority="13" numLanes="2" speed="27.78" disallow="pedestrian bicycle tram rail_urban rail rail_electric rail_fast ship container cable_car subway aircraft wheelchair scooter drone" oneway="0"/>
    <type id="highway.trunk_link" priority="8" numLanes="1" speed="22.22" disallow="pedestrian bicycle tram rail_urban rail rail_electric rail_fast ship container cable_car subway aircraft wheelchair scooter drone" oneway="0"/>

    <edge id=":-26303_0" function="internal">
        <lane id=":-26303_0_0" index="0" disallow="pedestrian bicycle tram rail_urban rail rail_electric rail_fast ship container cable_car subway aircraft wheelchair scooter drone" speed="22.78" length="0.10" shape="257944.93,4593734.60 257944.98,4593734.52"/>
        <lane id=":-26303_0_1" index="1" disallow="pedestrian bicycle tram rail_urban rail rail_electric rail_fast ship container cable_car subway aircraft wheelchair scooter drone" speed="22.78" length="0.10" shape="257942.29,4593732.80 257942.24,4593732.88"/>
    </edge>
    <edge id=":-26304_0" function="internal">
        <lane id=":-26304_0_0" index="0" disallow="pedestrian bicycle tram rail_urban rail rail_electric rail_fast ship container cable_car subway aircraft wheelchair scooter drone" speed="22.78" length="0.21" shape="257930.54,4593727.10 257930.71,4593726.84"/>
        <lane id=":-26304_0_1" index="1" disallow="pedestrian bicycle tram rail_urban rail rail_electric rail_fast ship container cable_car subway aircraft wheelchair scooter drone" speed="22.78" length="0.21" shape="257933.29,4593728.74 257933.35,4593728.65"/>
    </edge>
    <edge id=":-26448_0" function="internal">
        <lane id=":-26448_0_0" index="0" disallow="pedestrian bicycle tram rail_urban rail rail_electric rail_fast ship container cable_car subway aircraft wheelchair scooter drone" speed="22.78" length="0.26" shape="255318.98,4597158.41 255319.11,4597158.24"/>
        <lane id=":-26448_0_1" index="1" disallow="pedestrian bicycle tram rail_urban rail rail_electric rail_fast ship container cable_car subway aircraft wheelchair scooter drone" speed="22.78" length="0.26" shape="255321.52,4597160.36 255321.71,4597160.11"/>
    </edge>
    <edge id=":-26449_0" function="internal">
        <lane id=":-26449_0_0" index="0" disallow="pedestrian bicycle tram rail_urban rail rail_electric rail_fast ship container cable_car subway aircraft wheelchair scooter drone" speed="22.78" length="0.10" shape="255331.92,4597172.81 255331.86,4597172.89"/>
        <lane id=":-26449_0_1" index="1" disallow="pedestrian bicycle tram rail_urban rail rail_electric rail_fast ship container cable_car subway aircraft wheelchair scooter drone" speed="22.78" length="0.10" shape="255329.32,4597170.95 255329.38,4597170.87"/>
    </edge>
    <edge id=":-26479_0" function="internal">
        <lane id=":-26479_0_0" index="0" disallow="pedestrian bicycle tram rail_urban rail rail_electric rail_fast ship container cable_car subway aircraft wheelchair scooter drone" speed="22.78" length="0.24" shape="255350.04,4597147.61 255349.93,4597147.76"/>
        <lane id=":-26479_0_1" index="1" disallow="pedestrian bicycle tram rail_urban rail rail_electric rail_fast ship container cable_car subway aircraft wheelchair scooter drone" speed="22.78" length="0.24" shape="255347.51,4597145.66 255347.33,4597145.89"/>
    </edge>
    <edge id=":-26480_0" function="internal">
        <lane id=":-26480_0_0" index="0" disallow="pedestrian bicycle tram rail_urban rail rail_electric rail_fast ship container cable_car subway aircraft wheelchair scooter drone" speed="22.78" length="0.24" shape="255336.95,4597133.48 255337.06,4597133.33"/>
        <lane id=":-26480_0_1" index="1" disallow="pedestrian bicycle tram rail_urban rail rail_electric rail_fast ship container cable_car subway aircraft wheelchair scooter drone" speed="22.78" length="0.24" shape="255339.55,4597135.35 255339.72,4597135.11"/>
    </edge>
    <edge id=":-26486_0" function="internal">
        <lane id=":-26486_0_0" index="0" disallow="pedestrian bicycle tram rail_urban rail rail_electric rail_fast ship container cable_car subway aircraft wheelchair scooter drone" speed="6.61" length="7.87" shape="255631.95,4596553.42 255630.35,4596551.91 255629.47,4596550.27 255629.30,4596548.48 255629.84,4596546.55"/>
    </edge>
    <edge id=":-26486_1" function="internal">
        <lane id=":-26486_1_0" index="0" disallow="pedestrian bicycle tram rail_urban rail rail_electric rail_fast ship container cable_car subway aircraft wheelchair scooter drone" speed="22.78" length="8.72" shape="255623.39,4596553.22 255626.93,4596545.23"/>
        <lane id=":-26486_1_1" index="1" disallow="pedestrian bicycle tram rail_urban rail rail_electric rail_fast ship container cable_car subway aircraft wheelchair scooter drone" speed="22.78" length="8.72" shape="255626.32,4596554.51 255629.84,4596546.55"/>
    </edge>
    <edge id=":-26487_0" function="internal">
        <lane id=":-26487_0_0" index="0" disallow="pedestrian bicycle tram rail_urban rail rail_electric rail_fast ship container cable_car subway aircraft wheelchair scooter drone" speed="22.78" length="8.79" shape="255631.82,4596534.38 255635.73,4596526.42"/>
        <lane id=":-26487_0_1" index="1" disallow="pedestrian bicycle tram rail_urban rail rail_electric rail_fast ship container cable_car subway aircraft wheelchair scooter drone" speed="22.78" length="8.79" shape="255634.74,4596535.69 255638.58,4596527.87"/>
    </edge>
    <edge id=":-26487_2" function="internal">
        <lane id=":-26487_2_0" index="0" disallow="pedestrian bicycle tram rail_urban rail rail_electric rail_fast ship container cable_car subway aircraft wheelchair scooter drone" speed="6.83" length="7.91" shape="255634.74,4596535.69 255635.79,4596534.10 255637.25,4596533.06 255639.12,4596532.58 255641.40,4596532.66"/>
    </edge>
    <edge id=":-26491_0" function="internal">
        <lane id=":-26491_0_0" index="0" disallow="pedestrian bicycle tram rail_urban rail rail_electric rail_fast ship container cable_car subway aircraft wheelchair scooter drone" speed="12.36" length="24.28" shape="255824.05,4596145.58 255822.89,4596141.54 255823.63,4596136.49 255826.27,4596130.44 255830.79,4596123.39"/>
    </edge>
    <edge id=":-26491_1" function="internal">
        <lane id=":-26491_1_0" index="0" disallow="pedestrian bicycle tram rail_urban rail rail_electric rail_fast ship container cable_car subway aircraft wheelchair scooter drone" speed="9.92" length="24.80" shape="255824.05,4596145.58 255822.03,4596139.97 255822.98,4596134.97 255826.90,4596130.58 255833.79,4596126.80"/>
    </edge>
    <edge id=":-26491_2" function="internal">
        <lane id=":-26491_2_0" index="0" disallow="pedestrian bicycle tram rail_urban rail rail_electric rail_fast ship container cable_car subway aircraft wheelchair scooter drone" speed="22.78" length="26.02" shape="255815.94,4596144.34 255818.44,4596137.94 255821.12,4596132.43 255824.28,4596127.17 255828.20,4596121.52"/>
    </edge>
    <edge id=":-26491_3" function="internal">
        <lane id=":-26491_3_0" index="0" disallow="pedestrian bicycle tram rail_urban rail rail_electric rail_fast ship container cable_car subway aircraft wheelchair scooter drone" speed="15.45" length="3.62" shape="255818.95,4596145.41 255820.39,4596142.09"/>
    </edge>
    <edge id=":-26491_4" function="internal">
        <lane id=":-26491_4_0" index="0" disallow="pedestrian bicycle tram rail_urban rail rail_electric rail_fast ship container cable_car subway aircraft wheelchair scooter drone" speed="15.45" length="20.85" shape="255820.39,4596142.09 255821.83,4596138.77 255825.26,4596133.45 255829.25,4596129.46 255833.79,4596126.80"/>
    </edge>
    <edge id=":-26511_0" function="internal">
        <lane id=":-26511_0_0" index="0" disallow="pedestrian bicycle tram rail_urban rail rail_electric rail_fast ship container cable_car subway aircraft wheelchair scooter drone" speed="22.78" length="21.68" shape="256895.77,4595413.03 256899.74,4595408.22 256902.88,4595404.69 256906.24,4595401.37 256910.84,4595397.16"/>
        <lane id=":-26511_0_1" index="1" disallow="pedestrian bicycle tram rail_urban rail rail_electric rail_fast ship container cable_car subway aircraft wheelchair scooter drone" speed="22.78" length="21.68" shape="256898.25,4595415.05 256902.17,4595410.29 256905.19,4595406.89 256908.43,4595403.69 256912.98,4595399.53"/>
    </edge>
    <edge id=":-26511_2" function="internal">
        <lane id=":-26511_2_0" index="0" disallow="pedestrian bicycle tram rail_urban rail rail_electric rail_fast ship container cable_car subway aircraft wheelchair scooter drone" speed="22.78" length="20.19" shape="256898.25,4595415.05 256902.82,4595410.28 256907.07,4595407.20 256910.99,4595405.15 256914.55,4595403.52"/>
    </edge>
    <edge id=":-26511_3" function="internal">
        <lane id=":-26511_3_0" index="0" disallow="pedestrian bicycle tram rail_urban rail rail_electric rail_fast ship container cable_car subway aircraft wheelchair scooter drone" speed="12.75" length="20.58" shape="256903.33,4595416.89 256903.53,4595412.93 256905.20,4595408.71 256908.35,4595404.25 256912.98,4595399.53"/>
    </edge>
    <edge id=":-26511_4" function="internal">
        <lane id=":-26511_4_0" index="0" disallow="pedestrian bicycle tram rail_urban rail rail_electric rail_fast ship container cable_car subway aircraft wheelchair scooter drone" speed="10.33" length="18.60" shape="256903.33,4595416.89 256903.64,4595413.27 256905.61,4595409.83 256909.25,4595406.58 256914.55,4595403.52"/>
    </edge>
    <edge id=":-26550_0" function="internal">
        <lane id=":-26550_0_0" index="0" disallow="pedestrian bicycle tram rail_urban rail rail_electric rail_fast ship container cable_car subway aircraft wheelchair scooter drone" speed="22.78" length="24.31" shape="256936.19,4595416.47 256932.44,4595422.03 256928.85,4595426.51 256924.79,4595430.54 256919.60,4595434.77"/>
        <lane id=":-26550_0_1" index="1" disallow="pedestrian bicycle tram rail_urban rail rail_electric rail_fast ship container cable_car subway aircraft wheelchair scooter drone" speed="22.78" length="24.31" shape="256933.49,4595414.74 256929.86,4595420.17 256926.54,4595424.37 256922.73,4595428.12 256917.66,4595432.23"/>
    </edge>
    <edge id=":-26550_2" function="internal">
        <lane id=":-26550_2_0" index="0" disallow="pedestrian bicycle tram rail_urban rail rail_electric rail_fast ship container cable_car subway aircraft wheelchair scooter drone" speed="12.49" length="22.72" shape="256933.49,4595414.74 256929.17,4595420.55 256924.78,4595424.59 256920.34,4595426.86 256915.84,4595427.35"/>
    </edge>
    <edge id=":-26550_3" function="internal">
        <lane id=":-26550_3_0" index="0" disallow="pedestrian bicycle tram rail_urban rail rail_electric rail_fast ship container cable_car subway aircraft wheelchair scooter drone" speed="14.02" length="22.76" shape="256928.81,4595413.27 256928.08,4595418.41 256925.98,4595423.28 256922.51,4595427.89 256917.66,4595432.23"/>
    </edge>
    <edge id=":-26550_4" function="internal">
        <lane id=":-26550_4_0" index="0" disallow="pedestrian bicycle tram rail_urban rail rail_electric rail_fast ship container cable_car subway aircraft wheelchair scooter drone" speed="9.61" length="22.19" shape="256928.81,4595413.27 256927.95,4595419.85 256925.51,4595424.39 256921.47,4595426.89 256915.84,4595427.35"/>
    </edge>
    <edge id=":-26570_0" function="internal">
        <lane id=":-26570_0_0" index="0" disallow="pedestrian bicycle tram rail_urban rail rail_electric rail_fast ship container cable_car subway aircraft wheelchair scooter drone" speed="22.78" length="24.22" shape="255859.71,4596136.35 255848.16,4596157.63"/>
    </edge>
    <edge id=":-26570_1" function="internal">
        <lane id=":-26570_1_0" index="0" disallow="pedestrian bicycle tram rail_urban rail rail_electric rail_fast ship container cable_car subway aircraft wheelchair scooter drone" speed="17.82" length="4.19" shape="255856.88,4596134.87 255854.80,4596138.50"/>
    </edge>
    <edge id=":-26570_4" function="internal">
        <lane id=":-26570_4_0" index="0" disallow="pedestrian bicycle tram rail_urban rail rail_electric rail_fast ship container cable_car subway aircraft wheelchair scooter drone" speed="17.82" length="19.17" shape="255854.80,4596138.50 255853.30,4596141.13 255849.61,4596146.40 255845.93,4596150.39 255842.38,4596152.80"/>
    </edge>
    <edge id=":-26570_2" function="internal">
        <lane id=":-26570_2_0" index="0" disallow="pedestrian bicycle tram rail_urban rail rail_electric rail_fast ship container cable_car subway aircraft wheelchair scooter drone" speed="22.78" length="23.75" shape="255852.87,4596133.70 255852.38,4596138.08 255850.98,4596143.49 255848.65,4596149.59 255845.39,4596156.04"/>
    </edge>
    <edge id=":-26570_3" function="internal">
        <lane id=":-26570_3_0" index="0" disallow="pedestrian bicycle tram rail_urban rail rail_electric rail_fast ship container cable_car subway aircraft wheelchair scooter drone" speed="12.17" length="23.10" shape="255852.87,4596133.70 255852.17,4596140.33 255850.19,4596145.72 255846.93,4596149.88 255842.38,4596152.80"/>
    </edge>
    <edge id=":-26574_0" function="internal">
        <lane id=":-26574_0_0" index="0" disallow="pedestrian bicycle tram rail_urban rail rail_electric rail_fast ship container cable_car subway aircraft wheelchair scooter drone" speed="22.78" length="8.42" shape="255659.18,4596536.92 255655.84,4596544.70"/>
        <lane id=":-26574_0_1" index="1" disallow="pedestrian bicycle tram rail_urban rail rail_electric rail_fast ship container cable_car subway aircraft wheelchair scooter drone" speed="22.78" length="8.42" shape="255656.23,4596535.68 255652.92,4596543.38"/>
    </edge>
    <edge id=":-26574_2" function="internal">
        <lane id=":-26574_2_0" index="0" disallow="pedestrian bicycle tram rail_urban rail rail_electric rail_fast ship container cable_car subway aircraft wheelchair scooter drone" speed="6.55" length="7.74" shape="255650.82,4596536.64 255652.40,4596538.11 255653.28,4596539.73 255653.45,4596541.49 255652.92,4596543.38"/>
    </edge>
    <edge id=":-26575_0" function="internal">
        <lane id=":-26575_0_0" index="0" disallow="pedestrian bicycle tram rail_urban rail rail_electric rail_fast ship container cable_car subway aircraft wheelchair scooter drone" speed="22.78" length="9.56" shape="255651.21,4596554.98 255649.64,4596557.19 255647.88,4596558.20 255646.06,4596559.19 255644.32,4596561.32"/>
    </edge>
    <edge id=":-26575_1" function="internal">
        <lane id=":-26575_1_0" index="0" disallow="pedestrian bicycle tram rail_urban rail rail_electric rail_fast ship container cable_car subway aircraft wheelchair scooter drone" speed="7.31" length="8.12" shape="255648.29,4596553.66 255647.26,4596555.25 255645.78,4596556.36 255643.87,4596557.00 255641.52,4596557.17"/>
    </edge>
    <edge id=":-26596_0" function="internal">
        <lane id=":-26596_0_0" index="0" disallow="pedestrian bicycle tram rail_urban rail rail_electric rail_fast ship container cable_car subway aircraft wheelchair scooter drone" speed="4.27" length="1.20" shape="255839.80,4596124.31 255840.13,4596124.18 255840.37,4596124.14 255840.62,4596124.17 255840.95,4596124.28"/>
    </edge>
    <edge id=":-26613_0" function="internal">
        <lane id=":-26613_0_0" index="0" disallow="pedestrian bicycle tram rail_urban rail rail_electric rail_fast ship container cable_car subway aircraft wheelchair scooter drone" speed="4.33" length="1.13" shape="256924.98,4595404.51 256925.29,4595404.63 256925.49,4595404.75 256925.65,4595404.92 256925.83,4595405.20"/>
    </edge>
    <edge id=":-26629_0" function="internal">
        <lane id=":-26629_0_0" index="0" disallow="pedestrian bicycle tram rail_urban rail rail_electric rail_fast ship container cable_car subway aircraft wheelchair scooter drone" speed="22.78" length="0.26" shape="257948.76,4593700.49 257948.95,4593700.22"/>
        <lane id=":-26629_0_1" index="1" disallow="pedestrian bicycle tram rail_urban rail rail_electric rail_fast ship container cable_car subway aircraft wheelchair scooter drone" speed="22.78" length="0.26" shape="257951.40,4593702.30 257951.51,4593702.15"/>
    </edge>
    <edge id=":-26630_0" function="internal">
        <lane id=":-26630_0_0" index="0" disallow="pedestrian bicycle tram rail_urban rail rail_electric rail_fast ship container cable_car subway aircraft wheelchair scooter drone" speed="22.78" length="0.24" shape="257963.46,4593707.43 257963.36,4593707.58"/>
        <lane id=":-26630_0_1" index="1" disallow="pedestrian bicycle tram rail_urban rail rail_electric rail_fast ship container cable_car subway aircraft wheelchair scooter drone" speed="22.78" length="0.24" shape="257960.88,4593705.54 257960.71,4593705.78"/>
    </edge>
    <edge id=":-26638_0" function="internal">
        <lane id=":-26638_0_0" index="0" disallow="pedestrian bicycle tram rail_urban rail rail_electric rail_fast ship container cable_car subway aircraft wheelchair scooter drone" speed="22.78" length="0.28" shape="258204.20,4593400.62 258204.35,4593400.47"/>
        <lane id=":-26638_0_1" index="1" disallow="pedestrian bicycle tram rail_urban rail rail_electric rail_fast ship container cable_car subway aircraft wheelchair scooter drone" speed="22.78" length="0.28" shape="258206.38,4593402.97 258206.58,4593402.77"/>
        <lane id=":-26638_0_2" index="2" disallow="pedestrian bicycle tram rail_urban rail rail_electric rail_fast ship container cable_car subway aircraft wheelchair scooter drone" speed="22.78" length="0.28" shape="258208.56,4593405.31 258208.81,4593405.07"/>
    </edge>
    <edge id=":-26639_0" function="internal">
        <lane id=":-26639_0_0" index="0" disallow="pedestrian bicycle tram rail_urban rail rail_electric rail_fast ship container cable_car subway aircraft wheelchair scooter drone" speed="22.78" length="0.30" shape="258292.80,4593341.10 258292.58,4593341.31"/>
        <lane id=":-26639_0_1" index="1" disallow="pedestrian bicycle tram rail_urban rail rail_electric rail_fast ship container cable_car subway aircraft wheelchair scooter drone" speed="22.78" length="0.30" shape="258290.57,4593338.81 258290.35,4593339.01"/>
        <lane id=":-26639_0_2" index="2" disallow="pedestrian bicycle tram rail_urban rail rail_electric rail_fast ship container cable_car subway aircraft wheelchair scooter drone" speed="22.78" length="0.30" shape="258288.34,4593336.51 258288.12,4593336.72"/>
    </edge>
    <edge id=":-26647_0" function="internal">
        <lane id=":-26647_0_0" index="0" disallow="pedestrian bicycle tram rail_urban rail rail_electric rail_fast ship container cable_car subway aircraft wheelchair scooter drone" speed="7.91" length="13.42" shape="258534.26,4593133.53 258531.84,4593131.68 258529.04,4593131.22 258525.87,4593132.14 258522.33,4593134.46"/>
    </edge>
    <edge id=":-26647_1" function="internal">
        <lane id=":-26647_1_0" index="0" disallow="pedestrian bicycle tram rail_urban rail rail_electric rail_fast ship container cable_car subway aircraft wheelchair scooter drone" speed="18.34" length="20.35" shape="258534.26,4593133.53 258531.45,4593130.89 258527.83,4593128.39 258523.21,4593125.64 258517.39,4593122.28"/>
    </edge>
    <edge id=":-26647_2" function="internal">
        <lane id=":-26647_2_0" index="0" disallow="pedestrian bicycle tram rail_urban rail rail_electric rail_fast ship container cable_car subway aircraft wheelchair scooter drone" speed="22.78" length="17.20" shape="258536.61,4593127.46 258531.63,4593128.63 258527.95,4593128.81 258524.52,4593129.43 258520.32,4593131.97"/>
        <lane id=":-26647_2_1" index="1" disallow="pedestrian bicycle tram rail_urban rail rail_electric rail_fast ship container cable_car subway aircraft wheelchair scooter drone" speed="22.78" length="18.99" shape="258536.61,4593127.46 258531.10,4593128.29 258526.90,4593127.48 258522.97,4593127.17 258518.31,4593129.49"/>
    </edge>
    <edge id=":-26647_4" function="internal">
        <lane id=":-26647_4_0" index="0" disallow="pedestrian bicycle tram rail_urban rail rail_electric rail_fast ship container cable_car subway aircraft wheelchair scooter drone" speed="13.45" length="19.41" shape="258536.39,4593124.14 258531.53,4593125.35 258526.75,4593125.44 258522.04,4593124.42 258517.39,4593122.28"/>
        <lane id=":-26647_4_1" index="1" disallow="pedestrian bicycle tram rail_urban rail rail_electric rail_fast ship container cable_car subway aircraft wheelchair scooter drone" speed="10.93" length="19.41" shape="258536.16,4593120.82 258530.46,4593122.36 258525.58,4593122.58 258521.50,4593121.46 258518.24,4593119.02"/>
    </edge>
    <edge id=":-26656_0" function="internal">
        <lane id=":-26656_0_0" index="0" disallow="pedestrian bicycle tram rail_urban rail rail_electric rail_fast ship container cable_car subway aircraft wheelchair scooter drone" speed="18.34" length="19.80" shape="258511.30,4593115.77 258508.46,4593109.85 258506.04,4593105.24 258503.69,4593101.71 258501.06,4593098.99"/>
    </edge>
    <edge id=":-26656_1" function="internal">
        <lane id=":-26656_1_0" index="0" disallow="pedestrian bicycle tram rail_urban rail rail_electric rail_fast ship container cable_car subway aircraft wheelchair scooter drone" speed="17.42" length="18.53" shape="258511.30,4593115.77 258509.28,4593110.61 258508.84,4593106.76 258509.46,4593102.76 258510.57,4593097.17"/>
        <lane id=":-26656_1_1" index="1" disallow="pedestrian bicycle tram rail_urban rail rail_electric rail_fast ship container cable_car subway aircraft wheelchair scooter drone" speed="12.47" length="18.53" shape="258514.71,4593115.17 258513.39,4593112.71 258512.78,4593108.98 258512.90,4593103.98 258513.73,4593097.71"/>
    </edge>
    <edge id=":-26656_3" function="internal">
        <lane id=":-26656_3_0" index="0" disallow="pedestrian bicycle tram rail_urban rail rail_electric rail_fast ship container cable_car subway aircraft wheelchair scooter drone" speed="7.42" length="12.60" shape="258499.37,4593109.92 258501.91,4593106.62 258503.04,4593103.70 258502.75,4593101.16 258501.06,4593098.99"/>
    </edge>
    <edge id=":-26656_4" function="internal">
        <lane id=":-26656_4_0" index="0" disallow="pedestrian bicycle tram rail_urban rail rail_electric rail_fast ship container cable_car subway aircraft wheelchair scooter drone" speed="16.74" length="17.82" shape="258499.37,4593109.92 258502.67,4593106.52 258504.88,4593104.01 258506.35,4593101.14 258507.42,4593096.63"/>
        <lane id=":-26656_4_1" index="1" disallow="pedestrian bicycle tram rail_urban rail rail_electric rail_fast ship container cable_car subway aircraft wheelchair scooter drone" speed="17.68" length="17.82" shape="258501.71,4593112.10 258505.38,4593108.29 258507.81,4593105.46 258509.40,4593102.22 258510.57,4593097.17"/>
        <lane id=":-26656_4_2" index="2" disallow="pedestrian bicycle tram rail_urban rail rail_electric rail_fast ship container cable_car subway aircraft wheelchair scooter drone" speed="18.57" length="17.82" shape="258504.05,4593114.28 258508.09,4593110.06 258510.73,4593106.91 258512.45,4593103.30 258513.73,4593097.71"/>
    </edge>
    <edge id=":-26660_0" function="internal">
        <lane id=":-26660_0_0" index="0" disallow="pedestrian bicycle tram rail_urban rail rail_electric rail_fast ship container cable_car subway aircraft wheelchair scooter drone" speed="8.91" length="14.50" shape="258523.73,4593075.75 258526.68,4593077.11 258529.86,4593077.16 258533.26,4593075.90 258536.90,4593073.34"/>
    </edge>
    <edge id=":-26660_1" function="internal">
        <lane id=":-26660_1_0" index="0" disallow="pedestrian bicycle tram rail_urban rail rail_electric rail_fast ship container cable_car subway aircraft wheelchair scooter drone" speed="18.34" length="20.49" shape="258523.73,4593075.75 258527.09,4593077.70 258531.18,4593079.50 258536.16,4593081.63 258542.22,4593084.53"/>
    </edge>
    <edge id=":-26660_2" function="internal">
        <lane id=":-26660_2_0" index="0" disallow="pedestrian bicycle tram rail_urban rail rail_electric rail_fast ship container cable_car subway aircraft wheelchair scooter drone" speed="22.78" length="17.50" shape="258522.57,4593080.99 258527.49,4593079.38 258531.23,4593079.07 258534.75,4593078.42 258538.98,4593075.77"/>
        <lane id=":-26660_2_1" index="1" disallow="pedestrian bicycle tram rail_urban rail rail_electric rail_fast ship container cable_car subway aircraft wheelchair scooter drone" speed="22.78" length="19.30" shape="258522.57,4593080.99 258528.01,4593079.69 258532.31,4593080.35 258536.36,4593080.63 258541.06,4593078.20"/>
    </edge>
    <edge id=":-26660_4" function="internal">
        <lane id=":-26660_4_0" index="0" disallow="pedestrian bicycle tram rail_urban rail rail_electric rail_fast ship container cable_car subway aircraft wheelchair scooter drone" speed="12.93" length="19.16" shape="258523.17,4593084.24 258527.94,4593082.52 258532.70,4593082.00 258537.46,4593082.67 258542.22,4593084.53"/>
        <lane id=":-26660_4_1" index="1" disallow="pedestrian bicycle tram rail_urban rail rail_electric rail_fast ship container cable_car subway aircraft wheelchair scooter drone" speed="12.53" length="19.16" shape="258523.78,4593087.51 258528.23,4593085.91 258532.69,4593085.43 258537.16,4593086.07 258541.65,4593087.84"/>
    </edge>
    <edge id=":-26665_0" function="internal">
        <lane id=":-26665_0_0" index="0" disallow="pedestrian bicycle tram rail_urban rail rail_electric rail_fast ship container cable_car subway aircraft wheelchair scooter drone" speed="8.57" length="14.30" shape="258561.61,4593098.40 258558.99,4593101.87 258557.74,4593105.17 258557.86,4593108.29 258559.35,4593111.24"/>
    </edge>
    <edge id=":-26665_1" function="internal">
        <lane id=":-26665_1_0" index="0" disallow="pedestrian bicycle tram rail_urban rail rail_electric rail_fast ship container cable_car subway aircraft wheelchair scooter drone" speed="22.78" length="18.46" shape="258561.61,4593098.40 258558.41,4593102.06 258556.57,4593104.85 258555.19,4593107.94 258553.39,4593112.49"/>
        <lane id=":-26665_1_1" index="1" disallow="pedestrian bicycle tram rail_urban rail rail_electric rail_fast ship container cable_car subway aircraft wheelchair scooter drone" speed="22.78" length="18.46" shape="258559.27,4593096.22 258555.69,4593100.33 258553.65,4593103.47 258552.12,4593106.94 258550.12,4593112.04"/>
        <lane id=":-26665_1_2" index="2" disallow="pedestrian bicycle tram rail_urban rail rail_electric rail_fast ship container cable_car subway aircraft wheelchair scooter drone" speed="22.78" length="18.46" shape="258556.92,4593094.04 258552.98,4593098.59 258550.73,4593102.08 258549.06,4593105.93 258546.85,4593111.59"/>
    </edge>
    <edge id=":-26665_4" function="internal">
        <lane id=":-26665_4_0" index="0" disallow="pedestrian bicycle tram rail_urban rail rail_electric rail_fast ship container cable_car subway aircraft wheelchair scooter drone" speed="18.34" length="20.69" shape="258550.28,4593092.67 258553.17,4593098.78 258555.37,4593103.81 258557.29,4593107.92 258559.35,4593111.24"/>
    </edge>
    <edge id=":-26665_5" function="internal">
        <lane id=":-26665_5_0" index="0" disallow="pedestrian bicycle tram rail_urban rail rail_electric rail_fast ship container cable_car subway aircraft wheelchair scooter drone" speed="13.81" length="19.46" shape="258550.28,4593092.67 258551.87,4593097.06 258552.37,4593101.75 258551.79,4593106.74 258550.12,4593112.04"/>