<?xml version="1.0" encoding="UTF-8"?>

<!-- generated on 2026-05-05T09:39:31.026335+03:00 by Eclipse SUMO netedit 1.26.0
-->

<routes xmlns:xsi="http://www.w3.org/2001/XMLSchema-instance" xsi:noNamespaceSchemaLocation="http://sumo.dlr.de/xsd/routes_file.xsd">
    
    <vType id="standart_oto" sigma="0.5" speedDev="0.1" accel="2.6" decel="4.5" length="5.0"/>
    <!-- Vehicles, persons and containers (sorted by depart) -->
    <flow id="engiz-batipark-300" type="standart_oto" begin="0.00" end="3600.00" probability="0.0833" from="-4742#1" to="-4840"/>
</routes>
