<?xml version="1.0" encoding="UTF-8"?>

<!-- generated on 2026-05-10T21:08:41.315717+03:00 by Eclipse SUMO netedit 1.26.0
-->

<routes xmlns:xsi="http://www.w3.org/2001/XMLSchema-instance" xsi:noNamespaceSchemaLocation="http://sumo.dlr.de/xsd/routes_file.xsd">
    <!-- Vehicles, persons and containers (sorted by depart) -->
    <flow id="b_!" begin="0.00" end="3600.00" probability="0.01000000000000000021" color="3,0,255" from="-4787" to="-4786"/>
    <flow id="b_1" begin="0.00" end="3600.00" probability="0.01000000000000000021" color="3,0,255" from="-4785" to="E23"/>
    <flow id="e_1" begin="0.00" end="3600.00" probability="0.01000000000000000021" color="3,0,255" from="E67" to="-4787"/>
</routes>
