<?xml version="1.0" encoding="UTF-8"?>

<!-- generated on 2026-05-10T21:27:08.076477+03:00 by Eclipse SUMO netedit 1.26.0
-->

<routes xmlns:xsi="http://www.w3.org/2001/XMLSchema-instance" xsi:noNamespaceSchemaLocation="http://sumo.dlr.de/xsd/routes_file.xsd">
    <!-- Vehicles, persons and containers (sorted by depart) -->
    <flow id="ballica_ifam" begin="0.00" end="3600.00" probability="0.01000000000000000021" color="0,123,255" from="-4746.11" to="E32"/>
    <flow id="engiz_batipark" begin="0.00" end="3600.00" probability="0.27000000000000001776" color="246,255,0" from="-4744.18" to="-4840"/>
    <flow id="f_0" begin="0.00" end="3600.00" probability="0.27000000000000001776" color="255,0,8" from="-4841" to="-4745.14"/>
    <flow id="f_1" begin="0.00" end="3600.00" probability="0.01000000000000000021" from="-4785" to="-4784"/>
    <flow id="f_2" begin="0.00" end="3600.00" probability="0.01000000000000000021" from="-4834" to="E31"/>
    <flow id="f_3" begin="0.00" end="3600.00" probability="0.01000000000000000021" from="-4833.718" to="E31"/>
    <flow id="f_4" begin="0.00" end="3600.00" probability="0.01000000000000000021" color="84,0,255" from="-4777.854" to="-4778"/>
    <flow id="f_5" begin="0.00" end="3600.00" probability="0.01000000000000000021" color="84,0,255" from="-4787" to="E64"/>
    <flow id="f_6" begin="0.00" end="3600.00" probability="0.01000000000000000021" color="84,0,255" from="E67" to="-4787"/>
    <flow id="f_7" begin="0.00" end="3600.00" probability="0.01000000000000000021" color="84,0,255" from="-4785" to="E66"/>
    <flow id="f_8" begin="0.00" end="3600.00" probability="0.08000000000000000167" color="255,0,238" from="-4833.718" to="-4833.1503"/>
</routes>
