<?xml version="1.0" encoding="UTF-8"?>
<sumoConfiguration xmlns:xsi="http://www.w3.org/2001/XMLSchema-instance" xsi:noNamespaceSchemaLocation="http://sumo.dlr.de/xsd/sumoConfiguration.xsd">
    <input>
        <net-file value="green_wave_koridor.net.xml"/>
        <route-files value="../arac_talepleri/deneme_1.rou.xml,test_araclari.rou.xml"/>
        <additional-files value="detector_koridor.add.xml"/>
    </input>
</sumoConfiguration>
