<?xml version='1.0' encoding='utf-8'?>
<routes xmlns:xsi="http://www.w3.org/2001/XMLSchema-instance" xsi:noNamespaceSchemaLocation="http://sumo.dlr.de/xsd/routes_file.xsd">
    <vType id="test_passenger" vClass="passenger" />
    <route id="test_be_route" edges="-4841 -4842#3 -4839 -4839.140 -4837#1 -4831 -4831.55 -4831.419 E8 -4833.3 -4833.718 -4833.718.442 -4833.1503 -4835 -4835.183 -4781 -4785 -4785.578 -4789 -4787 -4787.329 -4792#1 -4778 -4778.109 -4778.630 E0 -4779.2 -4779.656 E12 -4779.656.62 -4779.656.62.62" />
    <vehicle id="test_be_000" type="test_passenger" route="test_be_route" depart="77.99" departLane="best" departSpeed="max" />
    <vehicle id="test_be_001" type="test_passenger" route="test_be_route" depart="300.13" departLane="best" departSpeed="max" />
    <vehicle id="test_be_002" type="test_passenger" route="test_be_route" depart="318.43" departLane="best" departSpeed="max" />
    <vehicle id="test_be_003" type="test_passenger" route="test_be_route" depart="357.57" departLane="best" departSpeed="max" />
    <vehicle id="test_be_004" type="test_passenger" route="test_be_route" depart="385.20" departLane="best" departSpeed="max" />
    <vehicle id="test_be_005" type="test_passenger" route="test_be_route" depart="549.89" departLane="best" departSpeed="max" />
    <vehicle id="test_be_006" type="test_passenger" route="test_be_route" depart="565.40" departLane="best" departSpeed="max" />
    <vehicle id="test_be_007" type="test_passenger" route="test_be_route" depart="762.33" departLane="best" departSpeed="max" />
    <vehicle id="test_be_008" type="test_passenger" route="test_be_route" depart="957.50" departLane="best" departSpeed="max" />
    <vehicle id="test_be_009" type="test_passenger" route="test_be_route" depart="1043.27" departLane="best" departSpeed="max" />
    <vehicle id="test_be_010" type="test_passenger" route="test_be_route" depart="1090.91" departLane="best" departSpeed="max" />
    <vehicle id="test_be_011" type="test_passenger" route="test_be_route" depart="1112.95" departLane="best" departSpeed="max" />
    <vehicle id="test_be_012" type="test_passenger" route="test_be_route" depart="1160.60" departLane="best" departSpeed="max" />
    <vehicle id="test_be_013" type="test_passenger" route="test_be_route" depart="1212.02" departLane="best" departSpeed="max" />
    <vehicle id="test_be_014" type="test_passenger" route="test_be_route" depart="1315.79" departLane="best" departSpeed="max" />
    <vehicle id="test_be_015" type="test_passenger" route="test_be_route" depart="1865.75" departLane="best" departSpeed="max" />
    <vehicle id="test_be_016" type="test_passenger" route="test_be_route" depart="1960.83" departLane="best" departSpeed="max" />
    <vehicle id="test_be_017" type="test_passenger" route="test_be_route" depart="2053.66" departLane="best" departSpeed="max" />
    <vehicle id="test_be_018" type="test_passenger" route="test_be_route" depart="2386.05" departLane="best" departSpeed="max" />
    <vehicle id="test_be_019" type="test_passenger" route="test_be_route" depart="2514.08" departLane="best" departSpeed="max" />
    <vehicle id="test_be_020" type="test_passenger" route="test_be_route" depart="2531.79" departLane="best" departSpeed="max" />
    <vehicle id="test_be_021" type="test_passenger" route="test_be_route" depart="2623.66" departLane="best" departSpeed="max" />
    <vehicle id="test_be_022" type="test_passenger" route="test_be_route" depart="2631.85" departLane="best" departSpeed="max" />
    <vehicle id="test_be_023" type="test_passenger" route="test_be_route" depart="2645.29" departLane="best" departSpeed="max" />
    <vehicle id="test_be_024" type="test_passenger" route="test_be_route" depart="2678.53" departLane="best" departSpeed="max" />
    <vehicle id="test_be_025" type="test_passenger" route="test_be_route" depart="2734.78" departLane="best" departSpeed="max" />
    <vehicle id="test_be_026" type="test_passenger" route="test_be_route" depart="2748.58" departLane="best" departSpeed="max" />
    <vehicle id="test_be_027" type="test_passenger" route="test_be_route" depart="2793.49" departLane="best" departSpeed="max" />
    <vehicle id="test_be_028" type="test_passenger" route="test_be_route" depart="2959.53" departLane="best" departSpeed="max" />
    <vehicle id="test_be_029" type="test_passenger" route="test_be_route" depart="3152.90" departLane="best" departSpeed="max" />
    <vehicle id="test_be_030" type="test_passenger" route="test_be_route" depart="3178.56" departLane="best" departSpeed="max" />
    <vehicle id="test_be_031" type="test_passenger" route="test_be_route" depart="3203.73" departLane="best" departSpeed="max" />
    <vehicle id="test_be_032" type="test_passenger" route="test_be_route" depart="3212.89" departLane="best" departSpeed="max" />
    <vehicle id="test_be_033" type="test_passenger" route="test_be_route" depart="3300.35" departLane="best" departSpeed="max" />
    <vehicle id="test_be_034" type="test_passenger" route="test_be_route" depart="3335.68" departLane="best" departSpeed="max" />
    <vehicle id="test_be_035" type="test_passenger" route="test_be_route" depart="3472.66" departLane="best" departSpeed="max" />
    <vehicle id="test_be_036" type="test_passenger" route="test_be_route" depart="3776.13" departLane="best" departSpeed="max" />
    <vehicle id="test_be_037" type="test_passenger" route="test_be_route" depart="3785.44" departLane="best" departSpeed="max" />
    <vehicle id="test_be_038" type="test_passenger" route="test_be_route" depart="4039.13" departLane="best" departSpeed="max" />
    <vehicle id="test_be_039" type="test_passenger" route="test_be_route" depart="4083.01" departLane="best" departSpeed="max" />
    <vehicle id="test_be_040" type="test_passenger" route="test_be_route" depart="4377.99" departLane="best" departSpeed="max" />
    <vehicle id="test_be_041" type="test_passenger" route="test_be_route" depart="4442.17" departLane="best" departSpeed="max" />
    <vehicle id="test_be_042" type="test_passenger" route="test_be_route" depart="4542.41" departLane="best" departSpeed="max" />
    <vehicle id="test_be_043" type="test_passenger" route="test_be_route" depart="4553.47" departLane="best" departSpeed="max" />
    <vehicle id="test_be_044" type="test_passenger" route="test_be_route" depart="4579.43" departLane="best" departSpeed="max" />
    <vehicle id="test_be_045" type="test_passenger" route="test_be_route" depart="4747.58" departLane="best" departSpeed="max" />
    <vehicle id="test_be_046" type="test_passenger" route="test_be_route" depart="4792.81" departLane="best" departSpeed="max" />
    <vehicle id="test_be_047" type="test_passenger" route="test_be_route" depart="5063.06" departLane="best" departSpeed="max" />
    <vehicle id="test_be_048" type="test_passenger" route="test_be_route" depart="5065.92" departLane="best" departSpeed="max" />
    <vehicle id="test_be_049" type="test_passenger" route="test_be_route" depart="5506.22" departLane="best" departSpeed="max" />
    <vehicle id="test_be_050" type="test_passenger" route="test_be_route" depart="6064.26" departLane="best" departSpeed="max" />
    <vehicle id="test_be_051" type="test_passenger" route="test_be_route" depart="6114.32" departLane="best" departSpeed="max" />
    <vehicle id="test_be_052" type="test_passenger" route="test_be_route" depart="6349.37" departLane="best" departSpeed="max" />
    <vehicle id="test_be_053" type="test_passenger" route="test_be_route" depart="6434.74" departLane="best" departSpeed="max" />
    <vehicle id="test_be_054" type="test_passenger" route="test_be_route" depart="6539.30" departLane="best" departSpeed="max" />
    <vehicle id="test_be_055" type="test_passenger" route="test_be_route" depart="6624.49" departLane="best" departSpeed="max" />
    <vehicle id="test_be_056" type="test_passenger" route="test_be_route" depart="6683.40" departLane="best" departSpeed="max" />
    <vehicle id="test_be_057" type="test_passenger" route="test_be_route" depart="6736.42" departLane="best" departSpeed="max" />
    <vehicle id="test_be_058" type="test_passenger" route="test_be_route" depart="6928.23" departLane="best" departSpeed="max" />
    <vehicle id="test_be_059" type="test_passenger" route="test_be_route" depart="7015.03" departLane="best" departSpeed="max" />
    <vehicle id="test_be_060" type="test_passenger" route="test_be_route" depart="7071.19" departLane="best" departSpeed="max" />
    <vehicle id="test_be_061" type="test_passenger" route="test_be_route" depart="7244.71" departLane="best" departSpeed="max" />
    <vehicle id="test_be_062" type="test_passenger" route="test_be_route" depart="7309.57" departLane="best" departSpeed="max" />
    <vehicle id="test_be_063" type="test_passenger" route="test_be_route" depart="7422.24" departLane="best" departSpeed="max" />
    <vehicle id="test_be_064" type="test_passenger" route="test_be_route" depart="7529.35" departLane="best" departSpeed="max" />
    <vehicle id="test_be_065" type="test_passenger" route="test_be_route" depart="7628.21" departLane="best" departSpeed="max" />
    <vehicle id="test_be_066" type="test_passenger" route="test_be_route" depart="7673.12" departLane="best" departSpeed="max" />
    <vehicle id="test_be_067" type="test_passenger" route="test_be_route" depart="7680.00" departLane="best" departSpeed="max" />
    <vehicle id="test_be_068" type="test_passenger" route="test_be_route" depart="7776.42" departLane="best" departSpeed="max" />
    <vehicle id="test_be_069" type="test_passenger" route="test_be_route" depart="7798.61" departLane="best" departSpeed="max" />
    <vehicle id="test_be_070" type="test_passenger" route="test_be_route" depart="7865.26" departLane="best" departSpeed="max" />
    <vehicle id="test_be_071" type="test_passenger" route="test_be_route" depart="8120.39" departLane="best" departSpeed="max" />
    <vehicle id="test_be_072" type="test_passenger" route="test_be_route" depart="8215.37" departLane="best" departSpeed="max" />
    <vehicle id="test_be_073" type="test_passenger" route="test_be_route" depart="8377.67" departLane="best" departSpeed="max" />
    <vehicle id="test_be_074" type="test_passenger" route="test_be_route" depart="8454.86" departLane="best" departSpeed="max" />
    <vehicle id="test_be_075" type="test_passenger" route="test_be_route" depart="8749.52" departLane="best" departSpeed="max" />
    <vehicle id="test_be_076" type="test_passenger" route="test_be_route" depart="8756.78" departLane="best" departSpeed="max" />
    <vehicle id="test_be_077" type="test_passenger" route="test_be_route" depart="8837.65" departLane="best" departSpeed="max" />
    <vehicle id="test_be_078" type="test_passenger" route="test_be_route" depart="9312.00" departLane="best" departSpeed="max" />
    <vehicle id="test_be_079" type="test_passenger" route="test_be_route" depart="9504.95" departLane="best" departSpeed="max" />
    <vehicle id="test_be_080" type="test_passenger" route="test_be_route" depart="9669.83" departLane="best" departSpeed="max" />
    <vehicle id="test_be_081" type="test_passenger" route="test_be_route" depart="9685.54" departLane="best" departSpeed="max" />
    <vehicle id="test_be_082" type="test_passenger" route="test_be_route" depart="9713.17" departLane="best" departSpeed="max" />
    <vehicle id="test_be_083" type="test_passenger" route="test_be_route" depart="9952.86" departLane="best" departSpeed="max" />
    <vehicle id="test_be_084" type="test_passenger" route="test_be_route" depart="10114.22" departLane="best" departSpeed="max" />
    <vehicle id="test_be_085" type="test_passenger" route="test_be_route" depart="10169.93" departLane="best" departSpeed="max" />
    <vehicle id="test_be_086" type="test_passenger" route="test_be_route" depart="10329.36" departLane="best" departSpeed="max" />
    <vehicle id="test_be_087" type="test_passenger" route="test_be_route" depart="10340.48" departLane="best" departSpeed="max" />
    <vehicle id="test_be_088" type="test_passenger" route="test_be_route" depart="10516.41" departLane="best" departSpeed="max" />
    <vehicle id="test_be_089" type="test_passenger" route="test_be_route" depart="10706.15" departLane="best" departSpeed="max" />
    <vehicle id="test_be_090" type="test_passenger" route="test_be_route" depart="10773.87" departLane="best" departSpeed="max" />
    <vehicle id="test_be_091" type="test_passenger" route="test_be_route" depart="10974.57" departLane="best" departSpeed="max" />
    <vehicle id="test_be_092" type="test_passenger" route="test_be_route" depart="11239.86" departLane="best" departSpeed="max" />
    <vehicle id="test_be_093" type="test_passenger" route="test_be_route" depart="11314.92" departLane="best" departSpeed="max" />
    <vehicle id="test_be_094" type="test_passenger" route="test_be_route" depart="11486.56" departLane="best" departSpeed="max" />
    <vehicle id="test_be_095" type="test_passenger" route="test_be_route" depart="11652.94" departLane="best" departSpeed="max" />
    <vehicle id="test_be_096" type="test_passenger" route="test_be_route" depart="11677.39" departLane="best" departSpeed="max" />
    <vehicle id="test_be_097" type="test_passenger" route="test_be_route" depart="11874.28" departLane="best" departSpeed="max" />
    <vehicle id="test_be_098" type="test_passenger" route="test_be_route" depart="11953.46" departLane="best" departSpeed="max" />
    <vehicle id="test_be_099" type="test_passenger" route="test_be_route" depart="11970.45" departLane="best" departSpeed="max" />
</routes>