<?xml version='1.0' encoding='utf-8'?>
<additional xmlns:xsi="http://www.w3.org/2001/XMLSchema-instance" xsi:noNamespaceSchemaLocation="http://sumo.dlr.de/xsd/additional_file.xsd">
    <laneAreaDetector id="atakent_0" lane="-E68_0" pos="27.04" length="220.00" friendlyPos="1" period="300.00" file="detector_ciktilari/atakent_0.xml" />
    <laneAreaDetector id="atakent_b_e_0" lane="-4781_0" pos="440.88" length="350.00" friendlyPos="1" period="300.00" file="detector_ciktilari/atakent_b_e_0.xml" />
    <laneAreaDetector id="atakent_b_e_1" lane="-4781_1" pos="440.88" length="350.00" friendlyPos="1" period="300.00" file="detector_ciktilari/atakent_b_e_1.xml" />
    <laneAreaDetector id="atakent_b_e_2" lane="-4781_2" pos="440.88" length="350.00" friendlyPos="1" period="300.00" file="detector_ciktilari/atakent_b_e_2.xml" />
    <laneAreaDetector id="atakent_e_b_0" lane="-4784.91_0" pos="691.57" length="350.00" friendlyPos="1" period="300.00" file="detector_ciktilari/atakent_e_b_0.xml" />
    <laneAreaDetector id="atakent_e_b_1" lane="-4784.91_1" pos="691.57" length="350.00" friendlyPos="1" period="300.00" file="detector_ciktilari/atakent_e_b_1.xml" />
    <laneAreaDetector id="atakent_e_b_2" lane="-4784.91_2" pos="691.57" length="350.00" friendlyPos="1" period="300.00" file="detector_ciktilari/atakent_e_b_2.xml" />
    <laneAreaDetector id="e2_0" lane="-4744.18_0" pos="274.39" length="50.00" period="300.00" file="detector_ciktilari/e2_0.xml" />
    <laneAreaDetector id="e2_2" lane="-4744.18_1" pos="274.35" length="50.00" period="300.00" file="detector_ciktilari/e2_2.xml" />
    <laneAreaDetector id="korfez_0" lane="E21_0" pos="59.14" length="100.00" friendlyPos="1" period="300.00" file="detector_ciktilari/korfez_0.xml" />
    <laneAreaDetector id="korfez_1" lane="E21_1" pos="58.83" length="100.00" friendlyPos="1" period="300.00" file="detector_ciktilari/korfez_1.xml" />
    <laneAreaDetector id="korfez_b_e_0" lane="-4778.109_0" pos="190.32" length="300.00" friendlyPos="1" period="300.00" file="detector_ciktilari/korfez_b_e_0.xml" />
    <laneAreaDetector id="korfez_b_e_1" lane="-4778.109_1" pos="190.29" length="300.00" period="300.00" file="detector_ciktilari/korfez_b_e_1.xml" />
    <laneAreaDetector id="korfez_b_e_2" lane="-4778.109_2" pos="190.40" length="300.00" period="300.00" file="detector_ciktilari/korfez_b_e_2.xml" />
    <laneAreaDetector id="korfez_e_b_0" lane="-4777_0" pos="528.38" length="300.00" friendlyPos="1" period="300.00" file="detector_ciktilari/korfez_e_b_0.xml" />
    <laneAreaDetector id="korfez_e_b_1" lane="-4777_1" pos="528.98" length="300.00" friendlyPos="1" period="300.00" file="detector_ciktilari/korfez_e_b_1.xml" />
    <laneAreaDetector id="korfez_e_b_2" lane="-4777_2" pos="528.98" length="300.00" friendlyPos="1" period="300.00" file="detector_ciktilari/korfez_e_b_2.xml" />
    <laneAreaDetector id="lise_0" lane="E74_0" pos="46.93" length="80.00" friendlyPos="1" period="300.00" file="detector_ciktilari/lise_0.xml" />
    <laneAreaDetector id="lise_1" lane="E74_1" pos="46.20" length="80.00" friendlyPos="1" period="300.00" file="detector_ciktilari/lise_1.xml" />
    <laneAreaDetector id="lise_2" lane="E74_2" pos="46.47" length="80.00" friendlyPos="1" period="300.00" file="detector_ciktilari/lise_2.xml" />
    <laneAreaDetector id="lise_b_e_0" lane="-4841_0" pos="865.60" length="300.00" friendlyPos="1" period="300.00" file="detector_ciktilari/lise_b_e_0.xml" />
    <laneAreaDetector id="lise_b_e_1" lane="-4841_1" pos="865.29" length="300.00" friendlyPos="1" period="300.00" file="detector_ciktilari/lise_b_e_1.xml" />
    <laneAreaDetector id="lise_b_e_2" lane="-4841_2" pos="865.58" length="300.00" friendlyPos="1" period="300.00" file="detector_ciktilari/lise_b_e_2.xml" />
    <laneAreaDetector id="lise_b_e_a_0" lane="-4842#3_0" pos="8.99" length="10.00" friendlyPos="1" period="300.00" file="detector_ciktilari/lise_b_e_a_0.xml" />
    <laneAreaDetector id="lise_b_e_a_1" lane="-4842#3_1" pos="8.51" length="10.00" friendlyPos="1" period="300.00" file="detector_ciktilari/lise_b_e_a_1.xml" />
    <laneAreaDetector id="lise_b_e_a_2" lane="-4842#3_2" pos="8.28" length="10.00" friendlyPos="1" period="300.00" file="detector_ciktilari/lise_b_e_a_2.xml" />
    <laneAreaDetector id="lise_b_e_b_0" lane="E35_0" pos="3.16" length="5.00" friendlyPos="1" period="300.00" file="detector_ciktilari/lise_b_e_b_0.xml" />
    <laneAreaDetector id="lise_b_e_b_1" lane="E35_1" pos="2.52" length="5.00" friendlyPos="1" period="300.00" file="detector_ciktilari/lise_b_e_b_1.xml" />
    <laneAreaDetector id="lise_b_e_b_2" lane="E35_2" pos="2.98" length="5.00" friendlyPos="1" period="300.00" file="detector_ciktilari/lise_b_e_b_2.xml" />
    <laneAreaDetector id="lise_b_e_c_1" lane="-4842#1_1" pos="0.40" length="3.00" friendlyPos="1" period="300.00" file="detector_ciktilari/lise_b_e_c_1.xml" />
    <laneAreaDetector id="lise_b_e_c_2" lane="-4842#1_0" pos="0.04" length="4.00" friendlyPos="1" period="300.00" file="detector_ciktilari/lise_b_e_c_2.xml" />
    <laneAreaDetector id="lise_b_e_d_0" lane="-4842#2_0" pos="4.36" length="4.00" friendlyPos="1" period="300.00" file="detector_ciktilari/lise_b_e_d_0.xml" />
    <laneAreaDetector id="lise_b_e_d_1" lane="-4842#2_1" pos="3.68" length="4.00" friendlyPos="1" period="300.00" file="detector_ciktilari/lise_b_e_d_1.xml" />
    <laneAreaDetector id="lise_b_e_d_2" lane="-4842#2_2" pos="3.18" length="4.00" friendlyPos="1" period="300.00" file="detector_ciktilari/lise_b_e_d_2.xml" />
    <laneAreaDetector id="lise_e_b_0" lane="-4838.40_0" pos="529.67" length="300.00" friendlyPos="1" period="300.00" file="detector_ciktilari/lise_e_b_0.xml" />
    <laneAreaDetector id="lise_e_b_1" lane="-4838.40_1" pos="530.07" length="300.00" friendlyPos="1" period="300.00" file="detector_ciktilari/lise_e_b_1.xml" />
    <laneAreaDetector id="lise_e_b_2" lane="-4838.40_2" pos="530.07" length="300.00" friendlyPos="1" period="300.00" file="detector_ciktilari/lise_e_b_2.xml" />
    <laneAreaDetector id="mimar_0" lane="E27_0" pos="59.65" length="200.00" friendlyPos="1" period="300.00" file="detector_ciktilari/mimar_0.xml" />
    <laneAreaDetector id="mimar_1" lane="E27_1" pos="59.65" length="200.00" friendlyPos="1" period="300.00" file="detector_ciktilari/mimar_1.xml" />
    <laneAreaDetector id="mimar_b_e_0" lane="-4831.55_0" pos="120.94" length="220.00" friendlyPos="1" period="300.00" file="detector_ciktilari/mimar_b_e_0.xml" />
    <laneAreaDetector id="mimar_b_e_1" lane="-4831.55_1" pos="120.94" length="220.00" friendlyPos="1" period="300.00" file="detector_ciktilari/mimar_b_e_1.xml" />
    <laneAreaDetector id="mimar_b_e_2" lane="-4831.55_2" pos="120.94" length="220.00" friendlyPos="1" period="300.00" file="detector_ciktilari/mimar_b_e_2.xml" />
    <laneAreaDetector id="mimar_e_b_0" lane="-4832_0" pos="444.80" length="250.00" friendlyPos="1" period="300.00" file="detector_ciktilari/mimar_e_b_0.xml" />
    <laneAreaDetector id="mimar_e_b_1" lane="-4832_1" pos="444.80" length="250.00" friendlyPos="1" period="300.00" file="detector_ciktilari/mimar_e_b_1.xml" />
    <laneAreaDetector id="mimar_e_b_2" lane="-4832_2" pos="444.80" length="250.00" friendlyPos="1" period="300.00" file="detector_ciktilari/mimar_e_b_2.xml" />
    <laneAreaDetector id="omurevleri_0" lane="E30_0" pos="30.21" length="150.00" friendlyPos="1" period="300.00" file="detector_ciktilari/omurevleri_0.xml" />
    <laneAreaDetector id="omurevleri_1" lane="E30_1" pos="30.47" length="150.00" friendlyPos="1" period="300.00" file="detector_ciktilari/omurevleri_1.xml" />
    <laneAreaDetector id="omurevleri_b_e_0" lane="-4833.718.442_0" pos="242.95" length="300.01" friendlyPos="1" period="300.00" file="detector_ciktilari/omurevleri_b_e_0.xml" />
    <laneAreaDetector id="omurevleri_b_e_1" lane="-4833.718.442_1" pos="242.78" length="300.00" friendlyPos="1" period="300.00" file="detector_ciktilari/omurevleri_b_e_1.xml" />
    <laneAreaDetector id="omurevleri_b_e_2" lane="-4833.718.442_2" pos="243.20" length="300.00" friendlyPos="1" period="300.00" file="detector_ciktilari/omurevleri_b_e_2.xml" />
    <laneAreaDetector id="omurevleri_e_b_0" lane="-4834_0" pos="237.01" length="300.00" friendlyPos="1" period="300.00" file="detector_ciktilari/omurevleri_e_b_0.xml" />
    <laneAreaDetector id="omurevleri_e_b_1" lane="-4834_1" pos="237.01" length="300.00" friendlyPos="1" period="300.00" file="detector_ciktilari/omurevleri_e_b_1.xml" />
    <laneAreaDetector id="omurevleri_e_b_2" lane="-4834_2" pos="237.01" length="300.00" friendlyPos="1" period="300.00" file="detector_ciktilari/omurevleri_e_b_2.xml" />
    <laneAreaDetector id="pelitkoy_0" lane="E65_0" pos="18.85" length="150.00" friendlyPos="1" period="300.00" file="detector_ciktilari/pelitkoy_0.xml" />
    <laneAreaDetector id="pelitkoy_1" lane="E65_1" pos="18.85" length="150.00" friendlyPos="1" period="300.00" file="detector_ciktilari/pelitkoy_1.xml" />
    <laneAreaDetector id="pelitkoy_b_e_0" lane="-4787.329_0" pos="327.65" length="300.00" friendlyPos="1" period="300.00" file="detector_ciktilari/pelitkoy_b_e_0.xml" />
    <laneAreaDetector id="pelitkoy_b_e_1" lane="-4787.329_1" pos="327.65" length="300.00" friendlyPos="1" period="300.00" file="detector_ciktilari/pelitkoy_b_e_1.xml" />
    <laneAreaDetector id="pelitkoy_b_e_2" lane="-4787.329_2" pos="327.56" length="300.00" friendlyPos="1" period="300.00" file="detector_ciktilari/pelitkoy_b_e_2.xml" />
    <laneAreaDetector id="pelitkoy_b_e_a_0" lane="-4792#1_0" pos="6.56" length="10.00" friendlyPos="1" period="300.00" file="detector_ciktilari/pelitkoy_b_e_a_0.xml" />
    <laneAreaDetector id="pelitkoy_b_e_a_1" lane="-4792#1_1" pos="6.56" length="10.00" friendlyPos="1" period="300.00" file="detector_ciktilari/pelitkoy_b_e_a_1.xml" />
    <laneAreaDetector id="pelitkoy_b_e_a_2" lane="-4792#1_2" pos="6.56" length="10.00" friendlyPos="1" period="300.00" file="detector_ciktilari/pelitkoy_b_e_a_2.xml" />
    <laneAreaDetector id="pelitkoy_b_e_b_0" lane="-4792#2_0" pos="0.86" length="5.00" friendlyPos="1" period="300.00" file="detector_ciktilari/pelitkoy_b_e_b_0.xml" />
    <laneAreaDetector id="pelitkoy_b_e_b_1" lane="-4792#2_1" pos="0.82" length="5.00" friendlyPos="1" period="300.00" file="detector_ciktilari/pelitkoy_b_e_b_1.xml" />
    <laneAreaDetector id="pelitkoy_b_e_b_2" lane="-4792#2_2" pos="0.81" length="5.00" friendlyPos="1" period="300.00" file="detector_ciktilari/pelitkoy_b_e_b_2.xml" />
    <laneAreaDetector id="pelitkoy_b_e_c_1" lane="-4792#3_1" pos="0.57" length="2.00" friendlyPos="1" period="300.00" file="detector_ciktilari/pelitkoy_b_e_c_1.xml" />
    <laneAreaDetector id="pelitkoy_b_e_c_2" lane="-4792#3_0" pos="0.02" length="3.00" friendlyPos="1" period="300.00" file="detector_ciktilari/pelitkoy_b_e_c_2.xml" />
    <laneAreaDetector id="pelitkoy_b_e_d_0" lane="E19_0" pos="2.73" length="5.00" friendlyPos="1" period="300.00" file="detector_ciktilari/pelitkoy_b_e_d_0.xml" />
    <laneAreaDetector id="pelitkoy_b_e_d_1" lane="E19_1" pos="1.89" length="5.00" friendlyPos="1" period="300.00" file="detector_ciktilari/pelitkoy_b_e_d_1.xml" />
    <laneAreaDetector id="pelitkoy_b_e_d_2" lane="E19_2" pos="1.60" length="5.08" friendlyPos="1" period="300.00" file="detector_ciktilari/pelitkoy_b_e_d_2.xml" />
    <laneAreaDetector id="pelitkoy_e_b_0" lane="-4777.854.85_0" pos="202.10" length="300.00" friendlyPos="1" period="300.00" file="detector_ciktilari/pelitkoy_e_b_0.xml" />
    <laneAreaDetector id="pelitkoy_e_b_1" lane="-4777.854.85_1" pos="202.10" length="300.00" friendlyPos="1" period="300.00" file="detector_ciktilari/pelitkoy_e_b_1.xml" />
    <laneAreaDetector id="pelitkoy_e_b_2" lane="-4777.854.85_2" pos="202.10" length="300.00" friendlyPos="1" period="300.00" file="detector_ciktilari/pelitkoy_e_b_2.xml" />
    <laneAreaDetector id="turgut_0" lane="E61_0" pos="0.98" length="25.00" friendlyPos="1" period="300.00" file="detector_ciktilari/turgut_0.xml" />
    <laneAreaDetector id="turgut_b_e_0" lane="-4779.656_0" pos="129.53" length="300.00" friendlyPos="1" period="300.00" file="detector_ciktilari/turgut_b_e_0.xml" />
    <laneAreaDetector id="turgut_b_e_1" lane="-4779.656_1" pos="129.71" length="300.00" friendlyPos="1" period="300.00" file="detector_ciktilari/turgut_b_e_1.xml" />
    <laneAreaDetector id="turgut_b_e_a_0" lane="E12_0" pos="11.44" length="10.00" friendlyPos="1" period="300.00" file="detector_ciktilari/turgut_b_e_a_0.xml" />
    <laneAreaDetector id="turgut_b_e_a_1" lane="E12_1" pos="10.96" length="10.00" friendlyPos="1" period="300.00" file="detector_ciktilari/turgut_b_e_a_1.xml" />
    <laneAreaDetector id="turgut_b_e_b_0" lane="E13_0" pos="0.79" length="5.00" friendlyPos="1" period="300.00" file="detector_ciktilari/turgut_b_e_b_0.xml" />
    <laneAreaDetector id="turgut_b_e_b_1" lane="E13_1" pos="0.67" length="5.00" friendlyPos="1" period="300.00" file="detector_ciktilari/turgut_b_e_b_1.xml" />
    <laneAreaDetector id="turgut_b_e_c_0" lane="E11_1" pos="2.60" length="6.00" friendlyPos="1" period="300.00" file="detector_ciktilari/turgut_b_e_c_0.xml" />
    <laneAreaDetector id="turgut_b_e_c_1" lane="E11_0" pos="2.06" length="6.00" friendlyPos="1" period="300.00" file="detector_ciktilari/turgut_b_e_c_1.xml" />
    <laneAreaDetector id="turgut_b_e_d_0" lane="E14_0" pos="0.23" length="5.00" friendlyPos="1" period="300.00" file="detector_ciktilari/turgut_b_e_d_0.xml" />
    <laneAreaDetector id="turgut_b_e_d_1" lane="E14_1" pos="0.27" length="5.00" friendlyPos="1" period="300.00" file="detector_ciktilari/turgut_b_e_d_1.xml" />
    <laneAreaDetector id="turgut_e_b_0" lane="-4780_1" pos="536.78" length="300.00" friendlyPos="1" period="300.00" file="detector_ciktilari/turgut_e_b_0.xml" />
    <laneAreaDetector id="turgut_e_b_1" lane="-4780_0" pos="536.78" length="300.00" friendlyPos="1" period="300.00" file="detector_ciktilari/turgut_e_b_1.xml" />
    <laneAreaDetector id="turkis_0" lane="E28_0" pos="21.61" length="200.00" friendlyPos="1" period="300.00" file="detector_ciktilari/turkis_0.xml" />
    <laneAreaDetector id="turkis_1" lane="E28_1" pos="21.69" length="200.00" friendlyPos="1" period="300.00" file="detector_ciktilari/turkis_1.xml" />
    <laneAreaDetector id="turkis_2" lane="E28_2" pos="21.75" length="200.00" friendlyPos="1" period="300.00" file="detector_ciktilari/turkis_2.xml" />
    <laneAreaDetector id="turkis_b_e_0" lane="-4833.3_0" pos="288.10" length="400.00" friendlyPos="1" period="300.00" file="detector_ciktilari/turkis_b_e_0.xml" />
    <laneAreaDetector id="turkis_b_e_1" lane="-4833.3_1" pos="287.69" length="400.00" friendlyPos="1" period="300.00" file="detector_ciktilari/turkis_b_e_1.xml" />
    <laneAreaDetector id="turkis_b_e_2" lane="-4833.3_2" pos="287.58" length="400.00" friendlyPos="1" period="300.00" file="detector_ciktilari/turkis_b_e_2.xml" />
    <laneAreaDetector id="turkis_e_b_0" lane="-4834.602.175_0" pos="406.35" length="400.00" friendlyPos="1" period="300.00" file="detector_ciktilari/turkis_e_b_0.xml" />
    <laneAreaDetector id="turkis_e_b_1" lane="-4834.602.175_1" pos="406.35" length="400.00" friendlyPos="1" period="300.00" file="detector_ciktilari/turkis_e_b_1.xml" />
    <laneAreaDetector id="turkis_e_b_2" lane="-4834.602.175_2" pos="406.35" length="400.00" friendlyPos="1" period="300.00" file="detector_ciktilari/turkis_e_b_2.xml" />
    <laneAreaDetector id="yenimahalle_0" lane="E67_0" pos="25.69" length="140.00" friendlyPos="1" period="300.00" file="detector_ciktilari/yenimahalle_0.xml" />
    <laneAreaDetector id="yenimahalle_1" lane="E67_1" pos="25.69" length="140.00" friendlyPos="1" period="300.00" file="detector_ciktilari/yenimahalle_1.xml" />
    <laneAreaDetector id="yenimahalle_2" lane="E67_2" pos="25.69" length="140.00" friendlyPos="1" period="300.00" file="detector_ciktilari/yenimahalle_2.xml" />
    <laneAreaDetector id="yenimahalle_b_e_0" lane="-4785.578_0" pos="246.91" length="300.00" friendlyPos="1" period="300.00" file="detector_ciktilari/yenimahalle_b_e_0.xml" />
    <laneAreaDetector id="yenimahalle_b_e_1" lane="-4785.578_1" pos="248.45" length="300.00" friendlyPos="1" period="300.00" file="detector_ciktilari/yenimahalle_b_e_1.xml" />
    <laneAreaDetector id="yenimahalle_b_e_2" lane="-4785.578_2" pos="248.73" length="300.00" friendlyPos="1" period="300.00" file="detector_ciktilari/yenimahalle_b_e_2.xml" />
    <laneAreaDetector id="yenimahalle_b_e_a_0" lane="-4789_0" pos="0.97" length="23.00" friendlyPos="1" period="300.00" file="detector_ciktilari/yenimahalle_b_e_a_0.xml" />
    <laneAreaDetector id="yenimahalle_b_e_a_1" lane="-4789_1" pos="0.69" length="23.00" friendlyPos="1" period="300.00" file="detector_ciktilari/yenimahalle_b_e_a_1.xml" />
    <laneAreaDetector id="yenimahalle_b_e_a_2" lane="-4789_2" pos="0.97" length="23.00" friendlyPos="1" period="300.00" file="detector_ciktilari/yenimahalle_b_e_a_2.xml" />
    <laneAreaDetector id="yenimahalle_b_e_b_0" lane="-4790_0" pos="0.78" length="14.00" friendlyPos="1" period="300.00" file="detector_ciktilari/yenimahalle_b_e_b_0.xml" />
    <laneAreaDetector id="yenimahalle_b_e_b_1" lane="-4790_1" pos="0.78" length="14.00" friendlyPos="1" period="300.00" file="detector_ciktilari/yenimahalle_b_e_b_1.xml" />
    <laneAreaDetector id="yenimahalle_b_e_b_2" lane="-4790_2" pos="1.78" length="13.00" friendlyPos="1" period="300.00" file="detector_ciktilari/yenimahalle_b_e_b_2.xml" />
    <laneAreaDetector id="yenimahalle_b_e_c_0" lane="-4788_2" pos="0.84" length="10.00" friendlyPos="1" period="300.00" file="detector_ciktilari/yenimahalle_b_e_c_0.xml" />
    <laneAreaDetector id="yenimahalle_b_e_c_1" lane="-4788_1" pos="0.84" length="10.00" friendlyPos="1" period="300.00" file="detector_ciktilari/yenimahalle_b_e_c_1.xml" />
    <laneAreaDetector id="yenimahalle_b_e_c_2" lane="-4788_0" pos="0.84" length="10.00" friendlyPos="1" period="300.00" file="detector_ciktilari/yenimahalle_b_e_c_2.xml" />
    <laneAreaDetector id="yenimahalle_b_e_d_0" lane="-4791_0" pos="2.05" length="7.00" friendlyPos="1" period="300.00" file="detector_ciktilari/yenimahalle_b_e_d_0.xml" />
    <laneAreaDetector id="yenimahalle_b_e_d_1" lane="-4791_1" pos="2.05" length="7.00" friendlyPos="1" period="300.00" file="detector_ciktilari/yenimahalle_b_e_d_1.xml" />
    <laneAreaDetector id="yenimahalle_b_e_d_2" lane="-4791_2" pos="1.86" length="6.35" friendlyPos="1" period="300.00" file="detector_ciktilari/yenimahalle_b_e_d_2.xml" />
    <laneAreaDetector id="yenimahalle_e_b_0" lane="-4786.291_0" pos="366.51" length="580.32" friendlyPos="1" period="300.00" file="detector_ciktilari/yenimahalle_e_b_0.xml" />
    <laneAreaDetector id="yenimahalle_e_b_1" lane="-4786.291_1" pos="366.51" length="580.32" friendlyPos="1" period="300.00" file="detector_ciktilari/yenimahalle_e_b_1.xml" />
    <laneAreaDetector id="yenimahalle_e_b_2" lane="-4786.291_2" pos="366.51" length="580.32" friendlyPos="1" period="300.00" file="detector_ciktilari/yenimahalle_e_b_2.xml" />
    <laneAreaDetector id="yesilyurt_0" lane="E70_0" pos="51.03" length="149.00" friendlyPos="1" period="300.00" file="detector_ciktilari/yesilyurt_0.xml" />
    <laneAreaDetector id="yesilyurt_b_e_0" lane="-4839.140_0" pos="438.73" length="300.00" friendlyPos="1" period="300.00" file="detector_ciktilari/yesilyurt_b_e_0.xml" />
    <laneAreaDetector id="yesilyurt_b_e_1" lane="-4839.140_1" pos="438.73" length="300.00" friendlyPos="1" period="300.00" file="detector_ciktilari/yesilyurt_b_e_1.xml" />
    <laneAreaDetector id="yesilyurt_b_e_2" lane="-4839.140_2" pos="438.73" length="300.00" friendlyPos="1" period="300.00" file="detector_ciktilari/yesilyurt_b_e_2.xml" />
    <laneAreaDetector id="yesilyurt_b_e_a_0" lane="-4837#1_0" pos="9.94" length="10.00" friendlyPos="1" period="300.00" file="detector_ciktilari/yesilyurt_b_e_a_0.xml" />
    <laneAreaDetector id="yesilyurt_b_e_a_1" lane="-4837#1_1" pos="9.80" length="10.00" friendlyPos="1" period="300.00" file="detector_ciktilari/yesilyurt_b_e_a_1.xml" />
    <laneAreaDetector id="yesilyurt_b_e_a_2" lane="-4837#1_2" pos="9.95" length="10.00" friendlyPos="1" period="300.00" file="detector_ciktilari/yesilyurt_b_e_a_2.xml" />
    <laneAreaDetector id="yesilyurt_b_e_b_0" lane="-4837#2_0" pos="1.06" length="10.00" friendlyPos="1" period="300.00" file="detector_ciktilari/yesilyurt_b_e_b_0.xml" />
    <laneAreaDetector id="yesilyurt_b_e_b_1" lane="-4837#2_1" pos="1.01" length="10.00" friendlyPos="1" period="300.00" file="detector_ciktilari/yesilyurt_b_e_b_1.xml" />
    <laneAreaDetector id="yesilyurt_b_e_b_2" lane="-4837#2_2" pos="1.38" length="10.00" friendlyPos="1" period="300.00" file="detector_ciktilari/yesilyurt_b_e_b_2.xml" />
    <laneAreaDetector id="yesilyurt_b_e_c_0" lane="-4837#3_0" pos="5.76" length="10.00" friendlyPos="1" period="300.00" file="detector_ciktilari/yesilyurt_b_e_c_0.xml" />
    <laneAreaDetector id="yesilyurt_b_e_c_1" lane="-4837#3_1" pos="5.79" length="10.00" friendlyPos="1" period="300.00" file="detector_ciktilari/yesilyurt_b_e_c_1.xml" />
    <laneAreaDetector id="yesilyurt_b_e_c_2" lane="-4837#3_2" pos="4.92" length="10.00" friendlyPos="1" period="300.00" file="detector_ciktilari/yesilyurt_b_e_c_2.xml" />
    <laneAreaDetector id="yesilyurt_b_e_d_0" lane="E34_0" pos="0.30" length="5.00" friendlyPos="1" period="300.00" file="detector_ciktilari/yesilyurt_b_e_d_0.xml" />
    <laneAreaDetector id="yesilyurt_b_e_d_1" lane="E34_1" pos="0.54" length="5.00" friendlyPos="1" period="300.00" file="detector_ciktilari/yesilyurt_b_e_d_1.xml" />
    <laneAreaDetector id="yesilyurt_e_b_0" lane="-4832.63.18_0" pos="66.12" length="300.00" period="300.00" file="detector_ciktilari/yesilyurt_e_b_0.xml" />
    <laneAreaDetector id="yesilyurt_e_b_1" lane="-4832.63.18_1" pos="66.12" length="300.00" period="300.00" file="detector_ciktilari/yesilyurt_e_b_1.xml" />
    <laneAreaDetector id="yesilyurt_e_b_2" lane="-4832.63.18_2" pos="66.12" length="300.00" period="300.00" file="detector_ciktilari/yesilyurt_e_b_2.xml" />
</additional>